 This run of the CFX Release 16.0 Solver started at 14:59:30 on 04 Jun
 2015 by user HPCHSR01 on NODE18 (intel_xeon64.sse2_winnt) using the
 command:
 
  "\\SHPC0001\ANSYS INC\V160\CFX\bin\perllib\cfx5solve.pl" -def
    pipe02_6.def
 
 Release 16.0
 
  Point Releases and Patches installed:
  ANSYS, Inc. Products Release 16.0
  ANSYS Mechanical Products Release 16.0
  ANSYS Customization Files for User Programmable Features Release 16.0
  ANSYS Autodyn Release 16.0
  ANSYS AIM Release 16.0
  ANSYS CFX (includes ANSYS CFD-Post) Release 16.0
  ANSYS Fluent (includes ANSYS CFD-Post) Release 16.0
  ANSYS TurboGrid Release 16.0
  ANSYS Polyflow (includes ANSYS CFD-Post) Release 16.0
  ANSYS CFD-Post only Release 16.0
  ANSYS ICEM CFD Release 16.0
  ANSYS Composite PrepPost Release 16.0
  ANSYS, Inc. License Manager Release 16.0
 
 Setting up CFX Solver run ...
 

 +--------------------------------------------------------------------+
 |                                                                    |
 |                    CFX Command Language Upgrade                    |
 |                                                                    |
 +--------------------------------------------------------------------+

 Added /SIMULATION CONTROL/EXECUTION CONTROL/EXECUTABLE SELECTION/Double
 Precision = Off.
 

 +--------------------------------------------------------------------+
 |                                                                    |
 |                    CFX Command Language for Run                    |
 |                                                                    |
 +--------------------------------------------------------------------+

 LIBRARY:
   CEL:
     EXPRESSIONS:
       DeltaT = probe(T)@MP3-273.15[K]
     END
   END
   MATERIAL: PE100RC
     Material Group = CHT Solids
     Option = Pure Substance
     Thermodynamic State = Solid
     PROPERTIES:
       Option = General Material
       EQUATION OF STATE:
         Density = 960 [kg m^-3]
         Molar Mass = 1.0 [kg kmol^-1]
         Option = Value
       END
       SPECIFIC HEAT CAPACITY:
         Option = Value
         Specific Heat Capacity = 1900 [J kg^-1 K^-1]
       END
       THERMAL CONDUCTIVITY:
         Option = Value
         Thermal Conductivity = 0.38 [W m^-1 K^-1]
       END
     END
   END
   MATERIAL: Water Glycol Mixture
     Material Description = Water (liquid)
     Material Group = Water Data,Constant Property Liquids
     Option = Pure Substance
     Thermodynamic State = Liquid
     PROPERTIES:
       Option = General Material
       EQUATION OF STATE:
         Density = 1042 [kg m^-3]
         Molar Mass = 18.02 [kg kmol^-1]
         Option = Value
       END
       SPECIFIC HEAT CAPACITY:
         Option = Value
         Specific Heat Capacity = 3481 [J kg^-1 K^-1]
         Specific Heat Type = Constant Pressure
       END
       REFERENCE STATE:
         Option = Specified Point
         Reference Pressure = 1 [atm]
         Reference Specific Enthalpy = 0.0 [J/kg]
         Reference Specific Entropy = 0.0 [J/kg/K]
         Reference Temperature = 0 [C]
       END
       DYNAMIC VISCOSITY:
         Dynamic Viscosity = 8.899E-4 [kg m^-1 s^-1]
         Option = Value
       END
       THERMAL CONDUCTIVITY:
         Option = Value
         Thermal Conductivity = 0.6069 [W m^-1 K^-1]
       END
       ABSORPTION COEFFICIENT:
         Absorption Coefficient = 1.0 [m^-1]
         Option = Value
       END
       SCATTERING COEFFICIENT:
         Option = Value
         Scattering Coefficient = 0.0 [m^-1]
       END
       REFRACTIVE INDEX:
         Option = Value
         Refractive Index = 1.0 [m m^-1]
       END
       THERMAL EXPANSIVITY:
         Option = Value
         Thermal Expansivity = 2.57E-04 [K^-1]
       END
     END
   END
 END
 FLOW: Flow Analysis 1
   SOLUTION UNITS:
     Angle Units = [rad]
     Length Units = [m]
     Mass Units = [kg]
     Solid Angle Units = [sr]
     Temperature Units = [K]
     Time Units = [s]
   END
   ANALYSIS TYPE:
     Option = Steady State
     EXTERNAL SOLVER COUPLING:
       Option = None
     END
   END
   DOMAIN: FluidDom
     Coord Frame = Coord 0
     Domain Type = Fluid
     Location = B446
     BOUNDARY: Default Fluid Solid Interface Side 1
       Boundary Type = INTERFACE
       Location = F449.446,F450.446,F452.446,F453.446,F454.446
       BOUNDARY CONDITIONS:
         HEAT TRANSFER:
           Option = Conservative Interface Flux
         END
         MASS AND MOMENTUM:
           Option = No Slip Wall
         END
         WALL ROUGHNESS:
           Option = Smooth Wall
         END
       END
     END
     BOUNDARY: Domain Interface 1 Side 1 1
       Boundary Type = INTERFACE
       Location = FluidSym01
       BOUNDARY CONDITIONS:
         HEAT TRANSFER:
           Option = Conservative Interface Flux
         END
         MASS AND MOMENTUM:
           Option = Conservative Interface Flux
         END
         TURBULENCE:
           Option = Conservative Interface Flux
         END
       END
     END
     BOUNDARY: Domain Interface 2 Side 1
       Boundary Type = INTERFACE
       Location = FluidSym02
       BOUNDARY CONDITIONS:
         HEAT TRANSFER:
           Option = Conservative Interface Flux
         END
         MASS AND MOMENTUM:
           Option = Conservative Interface Flux
         END
         TURBULENCE:
           Option = Conservative Interface Flux
         END
       END
     END
     BOUNDARY: Inlet
       Boundary Type = INLET
       Location = F447.446
       BOUNDARY CONDITIONS:
         FLOW REGIME:
           Option = Subsonic
         END
         HEAT TRANSFER:
           Option = Static Temperature
           Static Temperature = 273.15 [K]
         END
         MASS AND MOMENTUM:
           Normal Speed = 0.1 [m s^-1]
           Option = Normal Speed
         END
         TURBULENCE:
           Option = Medium Intensity and Eddy Viscosity Ratio
         END
       END
     END
     BOUNDARY: Outlet
       Boundary Type = OUTLET
       Location = F451.446
       BOUNDARY CONDITIONS:
         FLOW REGIME:
           Option = Subsonic
         END
         MASS AND MOMENTUM:
           Normal Speed = 0.1 [m s^-1]
           Option = Normal Speed
         END
       END
     END
     DOMAIN MODELS:
       BUOYANCY MODEL:
         Option = Non Buoyant
       END
       DOMAIN MOTION:
         Option = Stationary
       END
       MESH DEFORMATION:
         Option = None
       END
       REFERENCE PRESSURE:
         Reference Pressure = 1 [atm]
       END
     END
     FLUID DEFINITION: Fluid 1
       Material = Water Glycol Mixture
       Option = Material Library
       MORPHOLOGY:
         Option = Continuous Fluid
       END
     END
     FLUID MODELS:
       COMBUSTION MODEL:
         Option = None
       END
       HEAT TRANSFER MODEL:
         Option = Thermal Energy
       END
       THERMAL RADIATION MODEL:
         Option = None
       END
       TURBULENCE MODEL:
         Option = k epsilon
       END
       TURBULENT WALL FUNCTIONS:
         Option = Scalable
       END
     END
     SOURCE POINT: Origin
       Cartesian Coordinates = 0.0[m],0.0[m],0.0[m]
       Option = Cartesian Coordinates
     END
   END
   DOMAIN: TubeDom
     Coord Frame = Coord 0
     Domain Type = Solid
     Location = B378,B662
     BOUNDARY: Default Fluid Solid Interface Side 2
       Boundary Type = INTERFACE
       Location = \
         F379.378,F380.378,F381.378,F382.378,F383.378,F666.662,F668.662,F670.6\
         62,F672.662,F674.662
       BOUNDARY CONDITIONS:
         HEAT TRANSFER:
           Option = Conservative Interface Flux
         END
       END
     END
     BOUNDARY: Domain Interface 1 Side 1
       Boundary Type = INTERFACE
       Location = TubeIntFace01
       BOUNDARY CONDITIONS:
         HEAT TRANSFER:
           Option = Conservative Interface Flux
         END
       END
     END
     BOUNDARY: Domain Interface 1 Side 2
       Boundary Type = INTERFACE
       Location = TubeIntFace02
       BOUNDARY CONDITIONS:
         HEAT TRANSFER:
           Option = Conservative Interface Flux
         END
       END
     END
     BOUNDARY: Domain Interface 2 Side 2
       Boundary Type = INTERFACE
       Location = TubeSymFace01
       BOUNDARY CONDITIONS:
         HEAT TRANSFER:
           Option = Conservative Interface Flux
         END
       END
     END
     BOUNDARY: SymmetrieSolid Side 1
       Boundary Type = INTERFACE
       Location = TubeSymFace02
       BOUNDARY CONDITIONS:
         HEAT TRANSFER:
           Option = Conservative Interface Flux
         END
       END
     END
     BOUNDARY: TubeDom Default
       Boundary Type = WALL
       Location = \
         F390.378,F391.378,F392.378,F393.378,F394.378,F676.662,F677.662,F678.6\
         62,F679.662,F680.662
       BOUNDARY CONDITIONS:
         HEAT TRANSFER:
           Option = Adiabatic
         END
       END
     END
     BOUNDARY: TubeOuterWallAdia
       Boundary Type = WALL
       Location = TubeOuterWall01
       BOUNDARY CONDITIONS:
         HEAT TRANSFER:
           Option = Adiabatic
         END
       END
     END
     BOUNDARY: TubeOuterWallHeatex
       Boundary Type = WALL
       Location = TubeOuterWall02
       BOUNDARY CONDITIONS:
         HEAT TRANSFER:
           Fixed Temperature = 283.15 [K]
           Option = Fixed Temperature
         END
       END
     END
     DOMAIN MODELS:
       DOMAIN MOTION:
         Option = Stationary
       END
       MESH DEFORMATION:
         Option = None
       END
     END
     SOLID DEFINITION: Solid 1
       Material = PE100RC
       Option = Material Library
       MORPHOLOGY:
         Option = Continuous Solid
       END
     END
     SOLID MODELS:
       HEAT TRANSFER MODEL:
         Option = Thermal Energy
       END
       THERMAL RADIATION MODEL:
         Option = None
       END
     END
   END
   DOMAIN INTERFACE: Default Fluid Solid Interface
     Boundary List1 = Default Fluid Solid Interface Side 1
     Boundary List2 = Default Fluid Solid Interface Side 2
     Interface Type = Fluid Solid
     INTERFACE MODELS:
       Option = General Connection
       FRAME CHANGE:
         Option = None
       END
       PITCH CHANGE:
         Option = None
       END
     END
     MESH CONNECTION:
       Option = Automatic
     END
   END
   DOMAIN INTERFACE: Domain Interface 1
     Boundary List1 = Domain Interface 1 Side 1
     Boundary List2 = Domain Interface 1 Side 2
     Interface Type = Solid Solid
     INTERFACE MODELS:
       Option = General Connection
       FRAME CHANGE:
         Option = None
       END
       PITCH CHANGE:
         Option = None
       END
     END
     MESH CONNECTION:
       Option = Automatic
     END
   END
   DOMAIN INTERFACE: SymmetrieFluid
     Boundary List1 = Domain Interface 1 Side 1 1
     Boundary List2 = Domain Interface 2 Side 1
     Interface Type = Fluid Fluid
     INTERFACE MODELS:
       Option = Rotational Periodicity
       AXIS DEFINITION:
         Option = Coordinate Axis
         Rotation Axis = Coord 0.1
       END
     END
     MESH CONNECTION:
       Option = GGI
       INTERSECTION CONTROL:
         Option = Direct
         Periodic Axial Radial Tolerance = 0.001
       END
     END
   END
   DOMAIN INTERFACE: SymmetrieSolid
     Boundary List1 = Domain Interface 2 Side 2
     Boundary List2 = SymmetrieSolid Side 1
     Interface Type = Solid Solid
     INTERFACE MODELS:
       Option = Rotational Periodicity
       AXIS DEFINITION:
         Option = Coordinate Axis
         Rotation Axis = Coord 0.1
       END
     END
     MESH CONNECTION:
       Option = Automatic
       INTERSECTION CONTROL:
         Option = Direct
         Periodic Axial Radial Tolerance = 0.0001
       END
     END
   END
   OUTPUT CONTROL:
     MONITOR OBJECTS:
       MONITOR BALANCES:
         Option = Full
       END
       MONITOR FORCES:
         Option = Full
       END
       MONITOR PARTICLES:
         Option = Full
       END
       MONITOR POINT: MP1
         Cartesian Coordinates = 2.5 [m], 0 [m], 0 [m]
         Coord Frame = Coord 0
         Option = Cartesian Coordinates
         Output Variables List = Courant Number,Pressure,Temperature,Velocity
         MONITOR LOCATION CONTROL:
           Interpolation Type = Nearest Vertex
         END
         POSITION UPDATE FREQUENCY:
           Option = Initial Mesh Only
         END
       END
       MONITOR POINT: MP2
         Cartesian Coordinates = 2.5 [m], 0.012 [m], 0 [m]
         Coord Frame = Coord 0
         Option = Cartesian Coordinates
         Output Variables List = Courant Number,Pressure,Temperature,Velocity
         MONITOR LOCATION CONTROL:
           Interpolation Type = Nearest Vertex
         END
         POSITION UPDATE FREQUENCY:
           Option = Initial Mesh Only
         END
       END
       MONITOR POINT: MP3
         Cartesian Coordinates = 2.5 [m], 0.024 [m], 0 [m]
         Coord Frame = Coord 0
         Option = Cartesian Coordinates
         Output Variables List = Courant Number,Pressure,Temperature,Velocity
         MONITOR LOCATION CONTROL:
           Interpolation Type = Nearest Vertex
         END
         POSITION UPDATE FREQUENCY:
           Option = Initial Mesh Only
         END
       END
       MONITOR POINT: MP3_1
         Coord Frame = Coord 0
         Expression Value = DeltaT
         Option = Expression
       END
       MONITOR RESIDUALS:
         Option = Full
       END
       MONITOR TOTALS:
         Option = Full
       END
     END
     RESULTS:
       File Compression Level = Default
       Option = Standard
     END
   END
   SOLVER CONTROL:
     Turbulence Numerics = First Order
     ADVECTION SCHEME:
       Option = High Resolution
     END
     CONVERGENCE CONTROL:
       Length Scale Option = Conservative
       Maximum Number of Iterations = 200
       Minimum Number of Iterations = 1
       Solid Timescale Control = Auto Timescale
       Timescale Control = Auto Timescale
       Timescale Factor = 1.0
     END
     CONVERGENCE CRITERIA:
       Residual Target = 0.000001
       Residual Type = RMS
     END
     DYNAMIC MODEL CONTROL:
       Global Dynamic Model Control = On
     END
   END
 END
 COMMAND FILE:
   Version = 16.0
   Results Version = 16.0
 END
 SIMULATION CONTROL:
   EXECUTION CONTROL:
     EXECUTABLE SELECTION:
       Double Precision = No
     END
     PARALLEL HOST LIBRARY:
       HOST DEFINITION: node18
         Host Architecture String = winnt-amd64
         Installation Root = \\SHPC0001\ANSYS INC\V160\CFX
       END
     END
     RUN DEFINITION:
       Solver Input File = \
         //shpc0001/home/HPCHSR01/AppData/pipe02_6/pipe02_6.def
       Run Mode = Full
       Solver Results File = \
         \\shpc0001\home\HPCHSR01\AppData\pipe02_6\pipe02_6_001.res
     END
     SOLVER STEP CONTROL:
       PARALLEL ENVIRONMENT:
         Start Method = Serial
       END
     END
   END
 END
 

 +--------------------------------------------------------------------+
 |                                                                    |
 |                               Solver                               |
 |                                                                    |
 +--------------------------------------------------------------------+




 +--------------------------------------------------------------------+
 |                                                                    |
 |                       ANSYS(R) CFX(R) Solver                       |
 |                                                                    |
 | Release 16.0                                                       |
 | Build 16.0 2014.11.14-23.10-133146                                 |
 | Fri Nov 14 23:52:10 GMTST 2014                                     |
 |                                                                    |
 |                        Executable Attributes                       |
 |                                                                    |
 |          single-64bit-int32-supfort-optimised-noprof-lcomp         |
 |                                                                    |
 | (C) 2014 ANSYS, Inc.                                               |
 |                                                                    |
 | All rights reserved. Unauthorized use, distribution or duplication |
 | is prohibited. This product is subject to U.S. laws governing      |
 | export and re-export. For full Legal Notice, see documentation.    |
 +--------------------------------------------------------------------+




 +--------------------------------------------------------------------+
 |                  Job Information at Start of Run                   |
 +--------------------------------------------------------------------+

 Run mode:       serial run

 Host computer:  NODE18 (PID:4592)

 Job started:    Thu Jun 04 14:59:33 2015

 +--------------------------------------------------------------------+
 |                        License Information                         |
 +--------------------------------------------------------------------+
 
 License Cap:    ANSYS CFX Solver (Max 128K Nodes)
 License ID:     SIET0001.hsr.ch-SYSTEM-1368-049868


 +--------------------------------------------------------------------+
 |        Memory Allocated for Run  (Actual usage may be less)        |
 +--------------------------------------------------------------------+

           | Real       | Integer    | Character | Logical  | Double
 ----------+------------+------------+-----------+----------+----------
 Mwords    |      31.80 |      25.97 |      3.85 |     0.12 |     0.48
 Mbytes    |     121.31 |      99.06 |      3.67 |     0.46 |     3.64
 ----------+------------+------------+-----------+----------+----------


 +--------------------------------------------------------------------+
 |                  Host Memory Information (Mbytes)                  |
 +--------------------------------------------------------------------+
 |          Host           |     System     |   Allocated    |   %    |
 +-------------------------+----------------+----------------+--------+
 | NODE18                  |     49142.29   |       228.14   |   0.46 |
 +-------------------------+----------------+----------------+--------+


 +--------------------------------------------------------------------+
 |                     ****** Notice ******                           |
 | The Wall Heat Transfer Coefficient written to the results file for |
 | any turbulent phase with heat transfer is based on the turbulent   |
 | wall function coefficient. It is consistent with the Wall Heat Flux|
 | the wall temperature, and the Wall Adjacent Temperature            |
 | (near-wall temperature).  If you would like it to be based on a    |
 | user-specified bulk temperature instead, please set the expert     |
 | parameter "tbulk for htc = <value>".                               |
 +--------------------------------------------------------------------+

 +--------------------------------------------------------------------+
 |                     User Defined Source Points                     |
 +--------------------------------------------------------------------+

 Domain Name : FluidDom

 Source Point: Origin

   User specified location (x,y,z):   0.000E+00,  0.000E+00,  0.000E+00
   Assigned element center (x,y,z):   8.571E-03,  3.831E-03, -1.031E-03
   Distance to specified location :   9.445E-03

 +--------------------------------------------------------------------+
 |                          Mesh Statistics                           |
 +--------------------------------------------------------------------+
 | Domain Name          | Orthog. Angle | Exp. Factor  | Aspect Ratio |
 +----------------------+---------------+--------------+--------------+
 |                      | Minimum [deg] |   Maximum    |    Maximum   |
 +----------------------+---------------+--------------+--------------+
 | FluidDom             |       26.9 ok |        39  ! |       259 ok |
 | TubeDom              |       45.5 ok |         4 OK |         3 OK |
 | Global               |       26.9 ok |        39  ! |       259 ok |
 +----------------------+---------------+--------------+--------------+
 |                      |  %!  %ok  %OK | %!  %ok  %OK | %!  %ok  %OK |
 +----------------------+---------------+--------------+--------------+
 | FluidDom             |   0    6   94 | <1    5   95 |  0   54   46 |
 | TubeDom              |   0    2   98 |  0    0  100 |  0    0  100 |
 | Global               |   0    3   97 | <1    1   99 |  0   17   83 |
 +----------------------+---------------+--------------+--------------+

 Domain Name : FluidDom

     Total Number of Nodes                                =       37664

     Total Number of Elements                             =       33075
         Total Number of Prisms                           =         875
         Total Number of Hexahedrons                      =       32200

     Total Number of Faces                                =        9653

 Domain Name : TubeDom

     Total Number of Nodes                                =       81788

     Total Number of Elements                             =       39072
         Total Number of Hexahedrons                      =       39072

     Total Number of Faces                                =       81784
 
 Global Statistics :

     Global Number of Nodes                               =      119452

     Global Number of Elements                            =       72147
         Total Number of Prisms                           =         875
         Total Number of Hexahedrons                      =       71272

     Global Number of Faces                               =       91437

 Domain Interface Name : Default Fluid Solid Interface

     Discretization type                                  =         GGI
     Intersection type                                    =      Direct
     Non-overlap area fraction on side 1                  =    4.84E-02
     Non-overlap area fraction on side 2                  =    4.87E-02

 Domain Interface Name : Domain Interface 1

     Discretization type                                  =         GGI
     Intersection type                                    =      Direct
     Non-overlap area fraction on side 1                  =    0.00E+00
     Non-overlap area fraction on side 2                  =    0.00E+00

 Domain Interface Name : SymmetrieFluid

     Discretization type                                  =         GGI
     Intersection type                                    =      Direct
     Non-overlap area fraction on side 1                  =    1.30E-07
     Non-overlap area fraction on side 2                  =    3.73E-08

 Domain Interface Name : SymmetrieSolid

     Discretization type                                  =         1:1
     Intersection type                                    =      Direct

 +--------------------------------------------------------------------+
 |                  User Defined Monitor Information                  |
 +--------------------------------------------------------------------+

 Monitor Point: MP3_1

 Monitor Point: MP3

   Domain: FluidDom
   User specified location (x,y,z) :  2.500E+00,  2.400E-02,  0.000E+00
   Assigned vertex location (x,y,z):  2.503E+00,  2.388E-02,  4.566E-18
   Distance to specified location  :  2.860E-03
 
   Valid variables from output variable list:
                        Courant Number
                        Pressure
                        Temperature
                        Velocity

 Monitor Point: MP2

   Domain: FluidDom
   User specified location (x,y,z) :  2.500E+00,  1.200E-02,  0.000E+00
   Assigned vertex location (x,y,z):  2.503E+00,  1.119E-02,  6.119E-18
   Distance to specified location  :  2.969E-03
 
   Valid variables from output variable list:
                        Courant Number
                        Pressure
                        Temperature
                        Velocity

 Monitor Point: MP1

   Domain: FluidDom
   User specified location (x,y,z) :  2.500E+00,  0.000E+00,  0.000E+00
   Assigned vertex location (x,y,z):  2.503E+00,  4.044E-18, -2.597E-18
   Distance to specified location  :  2.857E-03
 
   Valid variables from output variable list:
                        Courant Number
                        Pressure
                        Temperature
                        Velocity

 +--------------------------------------------------------------------+
 |                   Reference Pressure Information                   |
 +--------------------------------------------------------------------+

 Domain Group: FluidDom
  
   Pressure has not been set at any boundary conditions.
   The pressure will be set to  0.00000E+00 at the following location:
   Domain      : FluidDom
   Node        :        1 (equation         1)
   Coordinates : ( 3.00000E+00, 2.56039E-02,-4.22075E-03).

 +--------------------------------------------------------------------+
 |                     Average Scale Information                      |
 +--------------------------------------------------------------------+

 Domain Name : FluidDom
     Global Length                                         = 9.0810E-02
     Minimum Extent                                        = 1.4662E-02
     Maximum Extent                                        = 3.0000E+00
     Density                                               = 1.0420E+03
     Dynamic Viscosity                                     = 8.8990E-04
     Velocity                                              = 1.0000E-01
     Advection Time                                        = 9.0810E-01
     Reynolds Number                                       = 1.0633E+04
     Thermal Conductivity                                  = 6.0690E-01
     Specific Heat Capacity at Constant Pressure           = 3.4810E+03
     Prandtl Number                                        = 5.1042E+00

 Domain Name : TubeDom
     Global Length                                         = 4.6457E-02
     Minimum Extent                                        = 8.8349E-03
     Maximum Extent                                        = 3.0000E+00
     Density                                               = 9.6000E+02
     Thermal Conductivity                                  = 3.8000E-01
     Specific Heat Capacity at Constant Pressure           = 1.9000E+03
     Thermal Diffusivity                                   = 2.0833E-07
     Average Diffusion Timescale                           = 1.0360E+04
     Minimum Diffusion Timescale                           = 3.7467E+02
     Maximum Diffusion Timescale                           = 4.3200E+07

 +--------------------------------------------------------------------+
 |                Checking for Isolated Fluid Regions                 |
 +--------------------------------------------------------------------+
 
 No isolated fluid regions were found.

 +--------------------------------------------------------------------+
 |              The Equations Solved in This Calculation              |
 +--------------------------------------------------------------------+
 
 Equations are given two labels: the individual name and a combined 
 name used for combining residuals together.  Residuals for multidomain 
 problems are combined provided the domains are connected together and 
 have the same domain type (solid or fluid/porous).  If there are 
 multiple groups of the same domain type, then the group residual is 
 identified by the name of the first domain in the connected group. 
 
 The individual and combined equation names are given below.

 Subsystem : Momentum and Mass

   U-Mom-FluidDom                            --> U-Mom
   V-Mom-FluidDom                            --> V-Mom
   W-Mom-FluidDom                            --> W-Mom
   P-Mass-FluidDom                           --> P-Mass

 Subsystem : Heat Transfer

   H-Energy-FluidDom                         --> H-Energy
   T-Energy-TubeDom                          --> T-Energy

 Subsystem : TurbKE and Diss.K

   K-TurbKE-FluidDom                         --> K-TurbKE
   E-Diss.K-FluidDom                         --> E-Diss.K
                   
 CFD Solver started: Thu Jun 04 14:59:37 2015


 +--------------------------------------------------------------------+
 |                       Convergence History                          |
 +--------------------------------------------------------------------+

 ======================================================================
 |                        Timescale Information                       |
 ----------------------------------------------------------------------
 |       Equation       |         Type          |      Timescale      |
 +----------------------+-----------------------+---------------------+
 | U-Mom-FluidDom       | Auto Timescale        |     2.72429E-01     |
 | V-Mom-FluidDom       | Auto Timescale        |     2.72429E-01     |
 | W-Mom-FluidDom       | Auto Timescale        |     2.72429E-01     |
 +----------------------+-----------------------+---------------------+
 | H-Energy-FluidDom    | Auto Timescale        |     2.72429E-01     |
 | T-Energy-TubeDom     | Auto Timescale        |     1.03598E+04     |
 +----------------------+-----------------------+---------------------+
 | K-TurbKE-FluidDom    | Auto Timescale        |     2.72429E-01     |
 | E-Diss.K-FluidDom    | Auto Timescale        |     2.72429E-01     |
 +----------------------+-----------------------+---------------------+

 ======================================================================
 OUTER LOOP ITERATION =    1                    CPU SECONDS = 4.578E+00
 ----------------------------------------------------------------------
 |       Equation       | Rate | RMS Res | Max Res |  Linear Solution |
 +----------------------+------+---------+---------+------------------+
 | U-Mom                | 0.00 | 1.3E-03 | 1.3E-02 |       7.8E-05  OK|
 | V-Mom                | 0.00 | 2.0E-10 | 1.9E-09 |       1.7E+02  F |
 | W-Mom                | 0.00 | 1.7E-10 | 2.4E-09 |       1.7E+02  F |
 | P-Mass               | 0.00 | 8.5E-10 | 5.3E-08 | 41.0  1.9E+01  F |
 +----------------------+------+---------+---------+------------------+
 | H-Energy             | 0.00 | 1.7E-02 | 1.8E-01 |       5.4E-02  OK|
 | T-Energy             | 0.00 | 9.1E-02 | 1.8E-01 |  5.9  5.4E-02  OK|
 +----------------------+------+---------+---------+------------------+
 | K-TurbKE             | 0.00 | 1.2E-02 | 4.9E-02 |  6.2  8.8E-03  OK|
 | E-Diss.K             | 0.00 | 1.8E-01 | 6.4E-01 |  7.5  1.0E-02  OK|
 +----------------------+------+---------+---------+------------------+

 ======================================================================
 OUTER LOOP ITERATION =    2                    CPU SECONDS = 1.030E+01
 ----------------------------------------------------------------------
 |       Equation       | Rate | RMS Res | Max Res |  Linear Solution |
 +----------------------+------+---------+---------+------------------+
 | U-Mom                | 0.68 | 8.8E-04 | 4.9E-03 |       8.7E-03  OK|
 | V-Mom                |99.99 | 1.6E-05 | 3.9E-04 |       2.4E-02  OK|
 | W-Mom                |99.99 | 5.9E-06 | 2.0E-04 |       4.8E-02  OK|
 | P-Mass               |99.99 | 2.0E-05 | 2.0E-03 | 14.3  3.3E-02  OK|
 +----------------------+------+---------+---------+------------------+
 | H-Energy             | 0.29 | 5.0E-03 | 7.4E-02 |       4.5E-02  OK|
 | T-Energy             | 0.03 | 2.7E-03 | 8.6E-03 |  5.8  4.5E-02  OK|
 +----------------------+------+---------+---------+------------------+
 | K-TurbKE             | 0.76 | 9.1E-03 | 3.9E-02 |  6.0  1.8E-03  OK|
 | E-Diss.K             | 0.09 | 1.6E-02 | 1.5E-01 |  7.3  2.3E-02  OK|
 +----------------------+------+---------+---------+------------------+

 ======================================================================
 OUTER LOOP ITERATION =    3                    CPU SECONDS = 1.547E+01
 ----------------------------------------------------------------------
 |       Equation       | Rate | RMS Res | Max Res |  Linear Solution |
 +----------------------+------+---------+---------+------------------+
 | U-Mom                | 0.96 | 8.4E-04 | 4.0E-03 |       8.1E-03  OK|
 | V-Mom                | 1.03 | 1.7E-05 | 5.3E-04 |       1.7E-02  OK|
 | W-Mom                | 0.90 | 5.3E-06 | 2.1E-04 |       4.0E-02  OK|
 | P-Mass               | 0.36 | 7.4E-06 | 5.1E-04 | 14.3  5.2E-02  OK|
 +----------------------+------+---------+---------+------------------+
 | H-Energy             | 0.41 | 2.0E-03 | 1.3E-02 |       6.0E-02  OK|
 | T-Energy             | 0.09 | 2.4E-04 | 2.0E-03 |  5.8  6.0E-02  OK|
 +----------------------+------+---------+---------+------------------+
 | K-TurbKE             | 0.76 | 6.9E-03 | 3.0E-02 |  6.0  5.5E-03  OK|
 | E-Diss.K             | 1.20 | 1.9E-02 | 1.4E-01 |  7.4  1.7E-02  OK|
 +----------------------+------+---------+---------+------------------+

 ======================================================================
 OUTER LOOP ITERATION =    4                    CPU SECONDS = 2.055E+01
 ----------------------------------------------------------------------
 |       Equation       | Rate | RMS Res | Max Res |  Linear Solution |
 +----------------------+------+---------+---------+------------------+
 | U-Mom                | 0.97 | 8.2E-04 | 3.4E-03 |       7.3E-03  OK|
 | V-Mom                | 1.09 | 1.9E-05 | 6.5E-04 |       1.7E-02  OK|
 | W-Mom                | 1.06 | 5.6E-06 | 2.5E-04 |       4.1E-02  OK|
 | P-Mass               | 0.80 | 5.9E-06 | 2.8E-04 | 14.3  5.3E-02  OK|
 +----------------------+------+---------+---------+------------------+
 | H-Energy             | 0.88 | 1.8E-03 | 1.4E-02 |       5.5E-02  OK|
 | T-Energy             | 1.94 | 4.7E-04 | 2.2E-03 |  5.8  5.5E-02  OK|
 +----------------------+------+---------+---------+------------------+
 | K-TurbKE             | 0.78 | 5.4E-03 | 2.4E-02 |  6.0  1.3E-02  OK|
 | E-Diss.K             | 1.61 | 3.0E-02 | 1.6E-01 |  7.3  1.3E-02  OK|
 +----------------------+------+---------+---------+------------------+

 ======================================================================
 OUTER LOOP ITERATION =    5                    CPU SECONDS = 2.558E+01
 ----------------------------------------------------------------------
 |       Equation       | Rate | RMS Res | Max Res |  Linear Solution |
 +----------------------+------+---------+---------+------------------+
 | U-Mom                | 0.98 | 8.0E-04 | 3.2E-03 |       6.6E-03  OK|
 | V-Mom                | 1.11 | 2.1E-05 | 7.7E-04 |       1.7E-02  OK|
 | W-Mom                | 1.11 | 6.2E-06 | 2.9E-04 |       4.1E-02  OK|
 | P-Mass               | 0.99 | 5.8E-06 | 3.0E-04 | 14.3  5.0E-02  OK|
 +----------------------+------+---------+---------+------------------+
 | H-Energy             | 0.86 | 1.5E-03 | 9.6E-03 |       5.1E-02  OK|
 | T-Energy             | 1.59 | 7.4E-04 | 2.8E-03 |  5.8  5.1E-02  OK|
 +----------------------+------+---------+---------+------------------+
 | K-TurbKE             | 0.86 | 4.6E-03 | 1.9E-02 |  6.0  2.0E-02  OK|
 | E-Diss.K             | 1.21 | 3.7E-02 | 1.6E-01 |  7.4  1.3E-02  OK|
 +----------------------+------+---------+---------+------------------+

 ======================================================================
 |                        Timescale Information                       |
 ----------------------------------------------------------------------
 |       Equation       |         Type          |      Timescale      |
 +----------------------+-----------------------+---------------------+
 | U-Mom-FluidDom       | Auto Timescale        |     2.72429E-01     |
 | V-Mom-FluidDom       | Auto Timescale        |     2.72429E-01     |
 | W-Mom-FluidDom       | Auto Timescale        |     2.72429E-01     |
 +----------------------+-----------------------+---------------------+
 | H-Energy-FluidDom    | Auto Timescale        |     2.72429E-01     |
 | T-Energy-TubeDom     | Auto Timescale        |     1.03598E+04     |
 +----------------------+-----------------------+---------------------+
 | K-TurbKE-FluidDom    | Auto Timescale        |     2.72429E-01     |
 | E-Diss.K-FluidDom    | Auto Timescale        |     2.72429E-01     |
 +----------------------+-----------------------+---------------------+

 ======================================================================
 OUTER LOOP ITERATION =    6                    CPU SECONDS = 3.061E+01
 ----------------------------------------------------------------------
 |       Equation       | Rate | RMS Res | Max Res |  Linear Solution |
 +----------------------+------+---------+---------+------------------+
 | U-Mom                | 0.98 | 7.8E-04 | 3.1E-03 |       6.0E-03  OK|
 | V-Mom                | 1.10 | 2.3E-05 | 8.8E-04 |       1.6E-02  OK|
 | W-Mom                | 1.09 | 6.8E-06 | 3.2E-04 |       4.0E-02  OK|
 | P-Mass               | 0.99 | 5.8E-06 | 3.0E-04 | 14.3  4.6E-02  OK|
 +----------------------+------+---------+---------+------------------+
 | H-Energy             | 0.90 | 1.4E-03 | 8.6E-03 |       5.3E-02  OK|
 | T-Energy             | 1.17 | 8.7E-04 | 3.1E-03 |  5.8  5.3E-02  OK|
 +----------------------+------+---------+---------+------------------+
 | K-TurbKE             | 0.94 | 4.4E-03 | 1.5E-02 |  6.1  2.5E-02  OK|
 | E-Diss.K             | 1.08 | 4.0E-02 | 1.6E-01 |  7.5  1.3E-02  OK|
 +----------------------+------+---------+---------+------------------+

 ======================================================================
 OUTER LOOP ITERATION =    7                    CPU SECONDS = 3.563E+01
 ----------------------------------------------------------------------
 |       Equation       | Rate | RMS Res | Max Res |  Linear Solution |
 +----------------------+------+---------+---------+------------------+
 | U-Mom                | 0.98 | 7.7E-04 | 3.1E-03 |       5.6E-03  OK|
 | V-Mom                | 1.08 | 2.4E-05 | 9.6E-04 |       1.5E-02  OK|
 | W-Mom                | 1.07 | 7.2E-06 | 3.5E-04 |       3.9E-02  OK|
 | P-Mass               | 0.97 | 5.6E-06 | 3.0E-04 | 14.3  4.4E-02  OK|
 +----------------------+------+---------+---------+------------------+
 | H-Energy             | 0.91 | 1.3E-03 | 7.8E-03 |       5.1E-02  OK|
 | T-Energy             | 1.04 | 9.0E-04 | 3.3E-03 |  5.8  5.1E-02  OK|
 +----------------------+------+---------+---------+------------------+
 | K-TurbKE             | 0.98 | 4.3E-03 | 1.5E-02 |  6.0  2.8E-02  OK|
 | E-Diss.K             | 1.01 | 4.0E-02 | 1.5E-01 |  7.5  1.3E-02  OK|
 +----------------------+------+---------+---------+------------------+

 ======================================================================
 OUTER LOOP ITERATION =    8                    CPU SECONDS = 4.064E+01
 ----------------------------------------------------------------------
 |       Equation       | Rate | RMS Res | Max Res |  Linear Solution |
 +----------------------+------+---------+---------+------------------+
 | U-Mom                | 0.99 | 7.6E-04 | 3.1E-03 |       5.2E-03  OK|
 | V-Mom                | 1.06 | 2.6E-05 | 1.0E-03 |       1.4E-02  OK|
 | W-Mom                | 1.05 | 7.6E-06 | 3.6E-04 |       3.8E-02  OK|
 | P-Mass               | 0.96 | 5.4E-06 | 2.9E-04 | 14.3  4.2E-02  OK|
 +----------------------+------+---------+---------+------------------+
 | H-Energy             | 0.93 | 1.2E-03 | 7.2E-03 |       4.8E-02  OK|
 | T-Energy             | 0.97 | 8.7E-04 | 3.2E-03 |  5.8  4.8E-02  OK|
 +----------------------+------+---------+---------+------------------+
 | K-TurbKE             | 0.99 | 4.3E-03 | 1.6E-02 |  6.0  2.9E-02  OK|
 | E-Diss.K             | 0.97 | 3.9E-02 | 1.4E-01 |  7.4  1.3E-02  OK|
 +----------------------+------+---------+---------+------------------+

 ======================================================================
 OUTER LOOP ITERATION =    9                    CPU SECONDS = 4.566E+01
 ----------------------------------------------------------------------
 |       Equation       | Rate | RMS Res | Max Res |  Linear Solution |
 +----------------------+------+---------+---------+------------------+
 | U-Mom                | 0.99 | 7.5E-04 | 3.2E-03 |       4.9E-03  OK|
 | V-Mom                | 1.04 | 2.7E-05 | 1.1E-03 |       1.4E-02  OK|
 | W-Mom                | 1.03 | 7.8E-06 | 3.7E-04 |       3.6E-02  OK|
 | P-Mass               | 0.96 | 5.2E-06 | 2.7E-04 | 14.3  4.0E-02  OK|
 +----------------------+------+---------+---------+------------------+
 | H-Energy             | 0.93 | 1.1E-03 | 6.6E-03 |       4.6E-02  OK|
 | T-Energy             | 0.92 | 8.1E-04 | 2.9E-03 |  5.8  4.6E-02  OK|
 +----------------------+------+---------+---------+------------------+
 | K-TurbKE             | 0.98 | 4.2E-03 | 1.5E-02 |  6.1  2.8E-02  OK|
 | E-Diss.K             | 0.94 | 3.7E-02 | 1.3E-01 |  7.4  1.3E-02  OK|
 +----------------------+------+---------+---------+------------------+

 ======================================================================
 OUTER LOOP ITERATION =   10                    CPU SECONDS = 5.077E+01
 ----------------------------------------------------------------------
 |       Equation       | Rate | RMS Res | Max Res |  Linear Solution |
 +----------------------+------+---------+---------+------------------+
 | U-Mom                | 0.99 | 7.4E-04 | 3.2E-03 |       4.5E-03  OK|
 | V-Mom                | 1.02 | 2.8E-05 | 1.1E-03 |       1.3E-02  OK|
 | W-Mom                | 1.02 | 8.0E-06 | 3.7E-04 |       3.5E-02  OK|
 | P-Mass               | 0.96 | 5.0E-06 | 2.6E-04 | 14.3  3.8E-02  OK|
 +----------------------+------+---------+---------+------------------+
 | H-Energy             | 0.94 | 1.0E-03 | 6.1E-03 |       4.2E-02  OK|
 | T-Energy             | 0.89 | 7.2E-04 | 2.6E-03 |  5.8  4.2E-02  OK|
 +----------------------+------+---------+---------+------------------+
 | K-TurbKE             | 0.98 | 4.1E-03 | 1.5E-02 |  6.1  2.8E-02  OK|
 | E-Diss.K             | 0.92 | 3.4E-02 | 1.2E-01 |  7.4  1.3E-02  OK|
 +----------------------+------+---------+---------+------------------+

 ======================================================================
 |                        Timescale Information                       |
 ----------------------------------------------------------------------
 |       Equation       |         Type          |      Timescale      |
 +----------------------+-----------------------+---------------------+
 | U-Mom-FluidDom       | Auto Timescale        |     2.72429E-01     |
 | V-Mom-FluidDom       | Auto Timescale        |     2.72429E-01     |
 | W-Mom-FluidDom       | Auto Timescale        |     2.72429E-01     |
 +----------------------+-----------------------+---------------------+
 | H-Energy-FluidDom    | Auto Timescale        |     2.72429E-01     |
 | T-Energy-TubeDom     | Auto Timescale        |     1.03598E+04     |
 +----------------------+-----------------------+---------------------+
 | K-TurbKE-FluidDom    | Auto Timescale        |     2.72429E-01     |
 | E-Diss.K-FluidDom    | Auto Timescale        |     2.72429E-01     |
 +----------------------+-----------------------+---------------------+

 ======================================================================
 OUTER LOOP ITERATION =   11                    CPU SECONDS = 5.578E+01
 ----------------------------------------------------------------------
 |       Equation       | Rate | RMS Res | Max Res |  Linear Solution |
 +----------------------+------+---------+---------+------------------+
 | U-Mom                | 0.98 | 7.2E-04 | 3.2E-03 |       4.2E-03  OK|
 | V-Mom                | 1.01 | 2.8E-05 | 1.2E-03 |       1.3E-02  OK|
 | W-Mom                | 1.00 | 8.0E-06 | 3.6E-04 |       3.5E-02  OK|
 | P-Mass               | 0.96 | 4.8E-06 | 2.5E-04 | 14.3  3.6E-02  OK|
 +----------------------+------+---------+---------+------------------+
 | H-Energy             | 0.94 | 9.7E-04 | 5.6E-03 |       3.9E-02  OK|
 | T-Energy             | 0.87 | 6.3E-04 | 2.2E-03 |  5.8  3.9E-02  OK|
 +----------------------+------+---------+---------+------------------+
 | K-TurbKE             | 0.97 | 4.0E-03 | 1.4E-02 |  6.1  2.6E-02  OK|
 | E-Diss.K             | 0.91 | 3.1E-02 | 1.1E-01 |  7.4  1.3E-02  OK|
 +----------------------+------+---------+---------+------------------+

 ======================================================================
 OUTER LOOP ITERATION =   12                    CPU SECONDS = 6.080E+01
 ----------------------------------------------------------------------
 |       Equation       | Rate | RMS Res | Max Res |  Linear Solution |
 +----------------------+------+---------+---------+------------------+
 | U-Mom                | 0.98 | 7.1E-04 | 3.3E-03 |       3.9E-03  OK|
 | V-Mom                | 0.98 | 2.7E-05 | 1.2E-03 |       1.3E-02  OK|
 | W-Mom                | 0.98 | 7.8E-06 | 3.6E-04 |       3.4E-02  OK|
 | P-Mass               | 0.96 | 4.6E-06 | 2.4E-04 | 14.3  3.5E-02  OK|
 +----------------------+------+---------+---------+------------------+
 | H-Energy             | 0.95 | 9.1E-04 | 5.2E-03 |       3.7E-02  OK|
 | T-Energy             | 0.86 | 5.4E-04 | 1.9E-03 |  5.8  3.7E-02  OK|
 +----------------------+------+---------+---------+------------------+
 | K-TurbKE             | 0.97 | 3.8E-03 | 1.3E-02 |  6.1  2.4E-02  OK|
 | E-Diss.K             | 0.90 | 2.7E-02 | 9.8E-02 |  7.5  1.3E-02  OK|
 +----------------------+------+---------+---------+------------------+

 ======================================================================
 OUTER LOOP ITERATION =   13                    CPU SECONDS = 6.581E+01
 ----------------------------------------------------------------------
 |       Equation       | Rate | RMS Res | Max Res |  Linear Solution |
 +----------------------+------+---------+---------+------------------+
 | U-Mom                | 0.98 | 6.9E-04 | 3.4E-03 |       3.7E-03  OK|
 | V-Mom                | 0.96 | 2.6E-05 | 1.2E-03 |       1.3E-02  OK|
 | W-Mom                | 0.96 | 7.5E-06 | 3.5E-04 |       3.4E-02  OK|
 | P-Mass               | 0.96 | 4.4E-06 | 2.3E-04 | 14.3  3.3E-02  OK|
 +----------------------+------+---------+---------+------------------+
 | H-Energy             | 0.95 | 8.7E-04 | 5.2E-03 |       3.5E-02  OK|
 | T-Energy             | 0.85 | 4.6E-04 | 1.6E-03 |  5.8  3.5E-02  OK|
 +----------------------+------+---------+---------+------------------+
 | K-TurbKE             | 0.97 | 3.7E-03 | 1.2E-02 |  6.1  2.1E-02  OK|
 | E-Diss.K             | 0.89 | 2.5E-02 | 8.8E-02 |  7.4  1.3E-02  OK|
 +----------------------+------+---------+---------+------------------+

 ======================================================================
 OUTER LOOP ITERATION =   14                    CPU SECONDS = 7.083E+01
 ----------------------------------------------------------------------
 |       Equation       | Rate | RMS Res | Max Res |  Linear Solution |
 +----------------------+------+---------+---------+------------------+
 | U-Mom                | 0.97 | 6.7E-04 | 3.5E-03 |       3.4E-03  OK|
 | V-Mom                | 0.96 | 2.5E-05 | 1.2E-03 |       1.3E-02  OK|
 | W-Mom                | 0.95 | 7.1E-06 | 3.3E-04 |       3.3E-02  OK|
 | P-Mass               | 0.96 | 4.3E-06 | 2.3E-04 | 14.3  3.2E-02  OK|
 +----------------------+------+---------+---------+------------------+
 | H-Energy             | 0.95 | 8.2E-04 | 5.2E-03 |       3.3E-02  OK|
 | T-Energy             | 0.86 | 4.0E-04 | 1.4E-03 |  5.8  3.3E-02  OK|
 +----------------------+------+---------+---------+------------------+
 | K-TurbKE             | 0.97 | 3.6E-03 | 1.2E-02 |  6.1  1.9E-02  OK|
 | E-Diss.K             | 0.89 | 2.2E-02 | 7.9E-02 |  7.4  1.2E-02  OK|
 +----------------------+------+---------+---------+------------------+

 ======================================================================
 OUTER LOOP ITERATION =   15                    CPU SECONDS = 7.585E+01
 ----------------------------------------------------------------------
 |       Equation       | Rate | RMS Res | Max Res |  Linear Solution |
 +----------------------+------+---------+---------+------------------+
 | U-Mom                | 0.97 | 6.5E-04 | 3.7E-03 |       3.2E-03  OK|
 | V-Mom                | 0.96 | 2.4E-05 | 1.2E-03 |       1.3E-02  OK|
 | W-Mom                | 0.96 | 6.8E-06 | 3.1E-04 |       3.3E-02  OK|
 | P-Mass               | 0.97 | 4.1E-06 | 2.3E-04 | 14.3  3.0E-02  OK|
 +----------------------+------+---------+---------+------------------+
 | H-Energy             | 0.95 | 7.8E-04 | 5.2E-03 |       3.1E-02  OK|
 | T-Energy             | 0.86 | 3.4E-04 | 1.2E-03 |  5.8  3.1E-02  OK|
 +----------------------+------+---------+---------+------------------+
 | K-TurbKE             | 0.96 | 3.5E-03 | 1.1E-02 |  6.1  1.7E-02  OK|
 | E-Diss.K             | 0.89 | 1.9E-02 | 7.1E-02 |  7.3  1.2E-02  OK|
 +----------------------+------+---------+---------+------------------+

 ======================================================================
 |                        Timescale Information                       |
 ----------------------------------------------------------------------
 |       Equation       |         Type          |      Timescale      |
 +----------------------+-----------------------+---------------------+
 | U-Mom-FluidDom       | Auto Timescale        |     2.72429E-01     |
 | V-Mom-FluidDom       | Auto Timescale        |     2.72429E-01     |
 | W-Mom-FluidDom       | Auto Timescale        |     2.72429E-01     |
 +----------------------+-----------------------+---------------------+
 | H-Energy-FluidDom    | Auto Timescale        |     2.72429E-01     |
 | T-Energy-TubeDom     | Auto Timescale        |     1.03598E+04     |
 +----------------------+-----------------------+---------------------+
 | K-TurbKE-FluidDom    | Auto Timescale        |     2.72429E-01     |
 | E-Diss.K-FluidDom    | Auto Timescale        |     2.72429E-01     |
 +----------------------+-----------------------+---------------------+

 ======================================================================
 OUTER LOOP ITERATION =   16                    CPU SECONDS = 8.088E+01
 ----------------------------------------------------------------------
 |       Equation       | Rate | RMS Res | Max Res |  Linear Solution |
 +----------------------+------+---------+---------+------------------+
 | U-Mom                | 0.97 | 6.3E-04 | 3.5E-03 |       2.9E-03  OK|
 | V-Mom                | 0.95 | 2.3E-05 | 1.1E-03 |       1.3E-02  OK|
 | W-Mom                | 0.96 | 6.6E-06 | 2.9E-04 |       3.2E-02  OK|
 | P-Mass               | 0.97 | 4.0E-06 | 2.2E-04 | 14.3  2.9E-02  OK|
 +----------------------+------+---------+---------+------------------+
 | H-Energy             | 0.95 | 7.4E-04 | 5.1E-03 |       2.9E-02  OK|
 | T-Energy             | 0.86 | 2.9E-04 | 1.1E-03 |  5.8  2.9E-02  OK|
 +----------------------+------+---------+---------+------------------+
 | K-TurbKE             | 0.96 | 3.4E-03 | 1.0E-02 |  6.1  1.5E-02  OK|
 | E-Diss.K             | 0.88 | 1.7E-02 | 6.3E-02 |  7.4  1.2E-02  OK|
 +----------------------+------+---------+---------+------------------+

 ======================================================================
 OUTER LOOP ITERATION =   17                    CPU SECONDS = 8.589E+01
 ----------------------------------------------------------------------
 |       Equation       | Rate | RMS Res | Max Res |  Linear Solution |
 +----------------------+------+---------+---------+------------------+
 | U-Mom                | 0.96 | 6.1E-04 | 3.2E-03 |       2.7E-03  OK|
 | V-Mom                | 0.95 | 2.2E-05 | 1.0E-03 |       1.3E-02  OK|
 | W-Mom                | 0.96 | 6.3E-06 | 2.8E-04 |       3.2E-02  OK|
 | P-Mass               | 0.97 | 3.9E-06 | 2.1E-04 | 14.3  2.7E-02  OK|
 +----------------------+------+---------+---------+------------------+
 | H-Energy             | 0.95 | 7.0E-04 | 5.0E-03 |       2.8E-02  OK|
 | T-Energy             | 0.87 | 2.5E-04 | 9.6E-04 |  5.8  2.8E-02  OK|
 +----------------------+------+---------+---------+------------------+
 | K-TurbKE             | 0.97 | 3.2E-03 | 1.0E-02 |  6.1  1.3E-02  OK|
 | E-Diss.K             | 0.88 | 1.5E-02 | 5.7E-02 |  7.4  1.2E-02  OK|
 +----------------------+------+---------+---------+------------------+

 ======================================================================
 OUTER LOOP ITERATION =   18                    CPU SECONDS = 9.091E+01
 ----------------------------------------------------------------------
 |       Equation       | Rate | RMS Res | Max Res |  Linear Solution |
 +----------------------+------+---------+---------+------------------+
 | U-Mom                | 0.96 | 5.8E-04 | 3.1E-03 |       2.5E-03  OK|
 | V-Mom                | 0.95 | 2.1E-05 | 9.9E-04 |       1.3E-02  OK|
 | W-Mom                | 0.95 | 6.0E-06 | 2.7E-04 |       3.1E-02  OK|
 | P-Mass               | 0.97 | 3.8E-06 | 2.2E-04 | 14.3  2.6E-02  OK|
 +----------------------+------+---------+---------+------------------+
 | H-Energy             | 0.95 | 6.7E-04 | 4.9E-03 |       2.6E-02  OK|
 | T-Energy             | 0.87 | 2.2E-04 | 8.8E-04 |  5.8  2.6E-02  OK|
 +----------------------+------+---------+---------+------------------+
 | K-TurbKE             | 0.97 | 3.1E-03 | 1.0E-02 |  6.1  1.1E-02  OK|
 | E-Diss.K             | 0.88 | 1.3E-02 | 5.1E-02 |  7.5  1.2E-02  OK|
 +----------------------+------+---------+---------+------------------+

 ======================================================================
 OUTER LOOP ITERATION =   19                    CPU SECONDS = 9.592E+01
 ----------------------------------------------------------------------
 |       Equation       | Rate | RMS Res | Max Res |  Linear Solution |
 +----------------------+------+---------+---------+------------------+
 | U-Mom                | 0.96 | 5.6E-04 | 3.1E-03 |       2.4E-03  OK|
 | V-Mom                | 0.95 | 2.0E-05 | 9.3E-04 |       1.3E-02  OK|
 | W-Mom                | 0.95 | 5.7E-06 | 2.7E-04 |       3.1E-02  OK|
 | P-Mass               | 0.97 | 3.7E-06 | 2.2E-04 | 14.3  2.5E-02  OK|
 +----------------------+------+---------+---------+------------------+
 | H-Energy             | 0.95 | 6.3E-04 | 4.7E-03 |       2.4E-02  OK|
 | T-Energy             | 0.88 | 2.0E-04 | 7.9E-04 |  5.8  2.4E-02  OK|
 +----------------------+------+---------+---------+------------------+
 | K-TurbKE             | 0.97 | 3.0E-03 | 9.7E-03 |  6.1  9.7E-03  OK|
 | E-Diss.K             | 0.89 | 1.2E-02 | 4.6E-02 |  7.5  1.2E-02  OK|
 +----------------------+------+---------+---------+------------------+

 ======================================================================
 OUTER LOOP ITERATION =   20                    CPU SECONDS = 1.009E+02
 ----------------------------------------------------------------------
 |       Equation       | Rate | RMS Res | Max Res |  Linear Solution |
 +----------------------+------+---------+---------+------------------+
 | U-Mom                | 0.95 | 5.3E-04 | 3.0E-03 |       2.2E-03  OK|
 | V-Mom                | 0.94 | 1.9E-05 | 8.8E-04 |       1.3E-02  OK|
 | W-Mom                | 0.95 | 5.4E-06 | 2.6E-04 |       3.1E-02  OK|
 | P-Mass               | 0.97 | 3.6E-06 | 2.2E-04 | 14.3  2.4E-02  OK|
 +----------------------+------+---------+---------+------------------+
 | H-Energy             | 0.95 | 6.0E-04 | 4.6E-03 |       2.3E-02  OK|
 | T-Energy             | 0.89 | 1.7E-04 | 7.2E-04 |  5.8  2.3E-02  OK|
 +----------------------+------+---------+---------+------------------+
 | K-TurbKE             | 0.97 | 3.0E-03 | 9.4E-03 |  6.1  8.3E-03  OK|
 | E-Diss.K             | 0.89 | 1.1E-02 | 4.1E-02 |  7.4  1.2E-02  OK|
 +----------------------+------+---------+---------+------------------+

 ======================================================================
 |                        Timescale Information                       |
 ----------------------------------------------------------------------
 |       Equation       |         Type          |      Timescale      |
 +----------------------+-----------------------+---------------------+
 | U-Mom-FluidDom       | Auto Timescale        |     2.72429E-01     |
 | V-Mom-FluidDom       | Auto Timescale        |     2.72429E-01     |
 | W-Mom-FluidDom       | Auto Timescale        |     2.72429E-01     |
 +----------------------+-----------------------+---------------------+
 | H-Energy-FluidDom    | Auto Timescale        |     2.72429E-01     |
 | T-Energy-TubeDom     | Auto Timescale        |     1.03598E+04     |
 +----------------------+-----------------------+---------------------+
 | K-TurbKE-FluidDom    | Auto Timescale        |     2.72429E-01     |
 | E-Diss.K-FluidDom    | Auto Timescale        |     2.72429E-01     |
 +----------------------+-----------------------+---------------------+

 ======================================================================
 OUTER LOOP ITERATION =   21                    CPU SECONDS = 1.060E+02
 ----------------------------------------------------------------------
 |       Equation       | Rate | RMS Res | Max Res |  Linear Solution |
 +----------------------+------+---------+---------+------------------+
 | U-Mom                | 0.95 | 5.1E-04 | 3.0E-03 |       2.1E-03  OK|
 | V-Mom                | 0.95 | 1.8E-05 | 8.4E-04 |       1.3E-02  OK|
 | W-Mom                | 0.95 | 5.1E-06 | 2.6E-04 |       3.1E-02  OK|
 | P-Mass               | 0.97 | 3.5E-06 | 2.2E-04 | 14.3  2.3E-02  OK|
 +----------------------+------+---------+---------+------------------+
 | H-Energy             | 0.95 | 5.7E-04 | 4.6E-03 |       2.2E-02  OK|
 | T-Energy             | 0.89 | 1.5E-04 | 6.5E-04 |  5.8  2.2E-02  OK|
 +----------------------+------+---------+---------+------------------+
 | K-TurbKE             | 0.97 | 2.9E-03 | 9.5E-03 |  6.1  7.4E-03  OK|
 | E-Diss.K             | 0.90 | 9.6E-03 | 3.7E-02 |  7.4  1.2E-02  OK|
 +----------------------+------+---------+---------+------------------+

 ======================================================================
 OUTER LOOP ITERATION =   22                    CPU SECONDS = 1.110E+02
 ----------------------------------------------------------------------
 |       Equation       | Rate | RMS Res | Max Res |  Linear Solution |
 +----------------------+------+---------+---------+------------------+
 | U-Mom                | 0.95 | 4.8E-04 | 2.9E-03 |       6.0E-03  OK|
 | V-Mom                | 0.94 | 1.7E-05 | 8.0E-04 |       3.6E-02  OK|
 | W-Mom                | 0.95 | 4.8E-06 | 2.5E-04 |       5.8E-02  OK|
 | P-Mass               | 0.97 | 3.3E-06 | 2.2E-04 |  9.9  1.0E-01  OK|
 +----------------------+------+---------+---------+------------------+
 | H-Energy             | 0.94 | 5.3E-04 | 4.5E-03 |       2.0E-02  OK|
 | T-Energy             | 0.90 | 1.4E-04 | 6.0E-04 |  5.8  2.0E-02  OK|
 +----------------------+------+---------+---------+------------------+
 | K-TurbKE             | 0.97 | 2.8E-03 | 9.7E-03 |  6.2  6.2E-03  OK|
 | E-Diss.K             | 0.89 | 8.5E-03 | 3.4E-02 |  7.4  1.1E-02  OK|
 +----------------------+------+---------+---------+------------------+

 ======================================================================
 OUTER LOOP ITERATION =   23                    CPU SECONDS = 1.159E+02
 ----------------------------------------------------------------------
 |       Equation       | Rate | RMS Res | Max Res |  Linear Solution |
 +----------------------+------+---------+---------+------------------+
 | U-Mom                | 0.95 | 4.6E-04 | 2.8E-03 |       5.8E-03  OK|
 | V-Mom                | 0.94 | 1.6E-05 | 7.6E-04 |       3.9E-02  OK|
 | W-Mom                | 0.94 | 4.5E-06 | 2.2E-04 |       6.3E-02  OK|
 | P-Mass               | 0.97 | 3.3E-06 | 2.3E-04 |  9.9  9.9E-02  OK|
 +----------------------+------+---------+---------+------------------+
 | H-Energy             | 0.94 | 5.0E-04 | 4.5E-03 |       1.9E-02  OK|
 | T-Energy             | 0.88 | 1.2E-04 | 5.5E-04 |  5.8  1.9E-02  OK|
 +----------------------+------+---------+---------+------------------+
 | K-TurbKE             | 0.97 | 2.7E-03 | 9.8E-03 |  6.2  5.4E-03  OK|
 | E-Diss.K             | 0.90 | 7.6E-03 | 3.1E-02 |  7.4  1.1E-02  OK|
 +----------------------+------+---------+---------+------------------+

 ======================================================================
 OUTER LOOP ITERATION =   24                    CPU SECONDS = 1.209E+02
 ----------------------------------------------------------------------
 |       Equation       | Rate | RMS Res | Max Res |  Linear Solution |
 +----------------------+------+---------+---------+------------------+
 | U-Mom                | 0.94 | 4.3E-04 | 2.8E-03 |       5.6E-03  OK|
 | V-Mom                | 0.94 | 1.5E-05 | 7.3E-04 |       4.1E-02  OK|
 | W-Mom                | 0.95 | 4.3E-06 | 2.2E-04 |       6.5E-02  OK|
 | P-Mass               | 0.98 | 3.2E-06 | 2.2E-04 |  9.9  9.4E-02  OK|
 +----------------------+------+---------+---------+------------------+
 | H-Energy             | 0.94 | 4.7E-04 | 4.3E-03 |       1.6E-02  OK|
 | T-Energy             | 0.91 | 1.1E-04 | 5.1E-04 |  5.8  1.6E-02  OK|
 +----------------------+------+---------+---------+------------------+
 | K-TurbKE             | 0.97 | 2.6E-03 | 9.8E-03 |  6.2  4.8E-03  OK|
 | E-Diss.K             | 0.92 | 7.0E-03 | 3.0E-02 |  7.4  1.1E-02  OK|
 +----------------------+------+---------+---------+------------------+

 ======================================================================
 OUTER LOOP ITERATION =   25                    CPU SECONDS = 1.258E+02
 ----------------------------------------------------------------------
 |       Equation       | Rate | RMS Res | Max Res |  Linear Solution |
 +----------------------+------+---------+---------+------------------+
 | U-Mom                | 0.94 | 4.1E-04 | 2.7E-03 |       5.3E-03  OK|
 | V-Mom                | 0.94 | 1.4E-05 | 6.9E-04 |       4.1E-02  OK|
 | W-Mom                | 0.94 | 4.0E-06 | 2.2E-04 |       6.8E-02  OK|
 | P-Mass               | 0.97 | 3.1E-06 | 2.2E-04 |  9.9  9.0E-02  OK|
 +----------------------+------+---------+---------+------------------+
 | H-Energy             | 0.94 | 4.5E-04 | 4.4E-03 |       1.5E-02  OK|
 | T-Energy             | 0.92 | 1.0E-04 | 4.8E-04 |  5.8  1.5E-02  OK|
 +----------------------+------+---------+---------+------------------+
 | K-TurbKE             | 0.97 | 2.6E-03 | 9.8E-03 |  6.2  4.1E-03  OK|
 | E-Diss.K             | 0.92 | 6.5E-03 | 2.9E-02 |  7.6  1.1E-02  OK|
 +----------------------+------+---------+---------+------------------+

 ======================================================================
 |                        Timescale Information                       |
 ----------------------------------------------------------------------
 |       Equation       |         Type          |      Timescale      |
 +----------------------+-----------------------+---------------------+
 | U-Mom-FluidDom       | Auto Timescale        |     2.72429E-01     |
 | V-Mom-FluidDom       | Auto Timescale        |     2.72429E-01     |
 | W-Mom-FluidDom       | Auto Timescale        |     2.72429E-01     |
 +----------------------+-----------------------+---------------------+
 | H-Energy-FluidDom    | Auto Timescale        |     2.72429E-01     |
 | T-Energy-TubeDom     | Auto Timescale        |     1.03598E+04     |
 +----------------------+-----------------------+---------------------+
 | K-TurbKE-FluidDom    | Auto Timescale        |     2.72429E-01     |
 | E-Diss.K-FluidDom    | Auto Timescale        |     2.72429E-01     |
 +----------------------+-----------------------+---------------------+

 ======================================================================
 OUTER LOOP ITERATION =   26                    CPU SECONDS = 1.307E+02
 ----------------------------------------------------------------------
 |       Equation       | Rate | RMS Res | Max Res |  Linear Solution |
 +----------------------+------+---------+---------+------------------+
 | U-Mom                | 0.94 | 3.8E-04 | 2.7E-03 |       5.0E-03  OK|
 | V-Mom                | 0.94 | 1.3E-05 | 6.5E-04 |       4.1E-02  OK|
 | W-Mom                | 0.94 | 3.8E-06 | 2.2E-04 |       6.9E-02  OK|
 | P-Mass               | 0.97 | 3.0E-06 | 2.1E-04 |  9.9  8.6E-02  OK|
 +----------------------+------+---------+---------+------------------+
 | H-Energy             | 0.94 | 4.2E-04 | 4.4E-03 |       1.3E-02  OK|
 | T-Energy             | 0.93 | 9.4E-05 | 4.5E-04 |  5.8  1.3E-02  OK|
 +----------------------+------+---------+---------+------------------+
 | K-TurbKE             | 0.97 | 2.5E-03 | 1.0E-02 |  6.2  3.8E-03  OK|
 | E-Diss.K             | 0.93 | 6.0E-03 | 2.8E-02 |  7.7  1.1E-02  OK|
 +----------------------+------+---------+---------+------------------+

 ======================================================================
 OUTER LOOP ITERATION =   27                    CPU SECONDS = 1.356E+02
 ----------------------------------------------------------------------
 |       Equation       | Rate | RMS Res | Max Res |  Linear Solution |
 +----------------------+------+---------+---------+------------------+
 | U-Mom                | 0.94 | 3.6E-04 | 2.6E-03 |       4.8E-03  OK|
 | V-Mom                | 0.93 | 1.2E-05 | 6.1E-04 |       4.1E-02  OK|
 | W-Mom                | 0.94 | 3.6E-06 | 2.2E-04 |       7.0E-02  OK|
 | P-Mass               | 0.97 | 2.9E-06 | 2.1E-04 |  9.9  8.2E-02  OK|
 +----------------------+------+---------+---------+------------------+
 | H-Energy             | 0.94 | 3.9E-04 | 4.3E-03 |       1.2E-02  OK|
 | T-Energy             | 0.93 | 8.7E-05 | 4.2E-04 |  5.8  1.2E-02  OK|
 +----------------------+------+---------+---------+------------------+
 | K-TurbKE             | 0.97 | 2.4E-03 | 1.0E-02 |  6.2  3.4E-03  OK|
 | E-Diss.K             | 0.93 | 5.6E-03 | 2.7E-02 |  7.6  1.1E-02  OK|
 +----------------------+------+---------+---------+------------------+

 ======================================================================
 OUTER LOOP ITERATION =   28                    CPU SECONDS = 1.405E+02
 ----------------------------------------------------------------------
 |       Equation       | Rate | RMS Res | Max Res |  Linear Solution |
 +----------------------+------+---------+---------+------------------+
 | U-Mom                | 0.93 | 3.3E-04 | 2.6E-03 |       4.6E-03  OK|
 | V-Mom                | 0.93 | 1.1E-05 | 5.8E-04 |       4.1E-02  OK|
 | W-Mom                | 0.93 | 3.4E-06 | 2.2E-04 |       7.1E-02  OK|
 | P-Mass               | 0.97 | 2.8E-06 | 2.0E-04 |  9.9  7.8E-02  OK|
 +----------------------+------+---------+---------+------------------+
 | H-Energy             | 0.94 | 3.7E-04 | 4.2E-03 |       1.1E-02  OK|
 | T-Energy             | 0.93 | 8.1E-05 | 4.0E-04 |  5.8  1.1E-02  OK|
 +----------------------+------+---------+---------+------------------+
 | K-TurbKE             | 0.97 | 2.4E-03 | 1.0E-02 |  6.2  3.0E-03  OK|
 | E-Diss.K             | 0.93 | 5.2E-03 | 2.6E-02 |  7.6  1.1E-02  OK|
 +----------------------+------+---------+---------+------------------+

 ======================================================================
 OUTER LOOP ITERATION =   29                    CPU SECONDS = 1.455E+02
 ----------------------------------------------------------------------
 |       Equation       | Rate | RMS Res | Max Res |  Linear Solution |
 +----------------------+------+---------+---------+------------------+
 | U-Mom                | 0.93 | 3.1E-04 | 2.5E-03 |       4.4E-03  OK|
 | V-Mom                | 0.93 | 1.0E-05 | 5.5E-04 |       4.0E-02  OK|
 | W-Mom                | 0.93 | 3.1E-06 | 2.2E-04 |       7.1E-02  OK|
 | P-Mass               | 0.97 | 2.7E-06 | 1.9E-04 |  9.9  7.4E-02  OK|
 +----------------------+------+---------+---------+------------------+
 | H-Energy             | 0.93 | 3.4E-04 | 4.1E-03 |       1.2E-02  OK|
 | T-Energy             | 0.94 | 7.6E-05 | 3.7E-04 |  5.8  1.2E-02  OK|
 +----------------------+------+---------+---------+------------------+
 | K-TurbKE             | 0.97 | 2.3E-03 | 1.0E-02 |  6.2  2.9E-03  OK|
 | E-Diss.K             | 0.93 | 4.8E-03 | 2.5E-02 |  7.6  1.1E-02  OK|
 +----------------------+------+---------+---------+------------------+

 ======================================================================
 OUTER LOOP ITERATION =   30                    CPU SECONDS = 1.504E+02
 ----------------------------------------------------------------------
 |       Equation       | Rate | RMS Res | Max Res |  Linear Solution |
 +----------------------+------+---------+---------+------------------+
 | U-Mom                | 0.93 | 2.9E-04 | 2.5E-03 |       4.2E-03  OK|
 | V-Mom                | 0.93 | 9.6E-06 | 5.2E-04 |       4.0E-02  OK|
 | W-Mom                | 0.93 | 2.9E-06 | 2.1E-04 |       7.0E-02  OK|
 | P-Mass               | 0.96 | 2.6E-06 | 1.9E-04 |  9.9  7.1E-02  OK|
 +----------------------+------+---------+---------+------------------+
 | H-Energy             | 0.93 | 3.2E-04 | 4.0E-03 |       1.1E-02  OK|
 | T-Energy             | 0.94 | 7.1E-05 | 3.5E-04 |  5.8  1.1E-02  OK|
 +----------------------+------+---------+---------+------------------+
 | K-TurbKE             | 0.97 | 2.2E-03 | 1.0E-02 |  6.2  2.6E-03  OK|
 | E-Diss.K             | 0.93 | 4.5E-03 | 2.4E-02 |  7.7  1.1E-02  OK|
 +----------------------+------+---------+---------+------------------+

 ======================================================================
 |                        Timescale Information                       |
 ----------------------------------------------------------------------
 |       Equation       |         Type          |      Timescale      |
 +----------------------+-----------------------+---------------------+
 | U-Mom-FluidDom       | Auto Timescale        |     2.72429E-01     |
 | V-Mom-FluidDom       | Auto Timescale        |     2.72429E-01     |
 | W-Mom-FluidDom       | Auto Timescale        |     2.72429E-01     |
 +----------------------+-----------------------+---------------------+
 | H-Energy-FluidDom    | Auto Timescale        |     2.72429E-01     |
 | T-Energy-TubeDom     | Auto Timescale        |     1.03598E+04     |
 +----------------------+-----------------------+---------------------+
 | K-TurbKE-FluidDom    | Auto Timescale        |     2.72429E-01     |
 | E-Diss.K-FluidDom    | Auto Timescale        |     2.72429E-01     |
 +----------------------+-----------------------+---------------------+

 ======================================================================
 OUTER LOOP ITERATION =   31                    CPU SECONDS = 1.553E+02
 ----------------------------------------------------------------------
 |       Equation       | Rate | RMS Res | Max Res |  Linear Solution |
 +----------------------+------+---------+---------+------------------+
 | U-Mom                | 0.92 | 2.7E-04 | 2.4E-03 |       4.1E-03  OK|
 | V-Mom                | 0.92 | 8.9E-06 | 4.9E-04 |       3.9E-02  OK|
 | W-Mom                | 0.93 | 2.7E-06 | 2.1E-04 |       6.9E-02  OK|
 | P-Mass               | 0.96 | 2.5E-06 | 1.9E-04 |  9.9  6.7E-02  OK|
 +----------------------+------+---------+---------+------------------+
 | H-Energy             | 0.93 | 3.0E-04 | 3.8E-03 |       1.1E-02  OK|
 | T-Energy             | 0.94 | 6.7E-05 | 3.3E-04 |  5.8  1.1E-02  OK|
 +----------------------+------+---------+---------+------------------+
 | K-TurbKE             | 0.97 | 2.2E-03 | 1.1E-02 |  6.2  2.4E-03  OK|
 | E-Diss.K             | 0.94 | 4.2E-03 | 2.3E-02 |  7.7  1.1E-02  OK|
 +----------------------+------+---------+---------+------------------+

 ======================================================================
 OUTER LOOP ITERATION =   32                    CPU SECONDS = 1.602E+02
 ----------------------------------------------------------------------
 |       Equation       | Rate | RMS Res | Max Res |  Linear Solution |
 +----------------------+------+---------+---------+------------------+
 | U-Mom                | 0.92 | 2.4E-04 | 2.3E-03 |       4.0E-03  OK|
 | V-Mom                | 0.92 | 8.2E-06 | 4.5E-04 |       3.8E-02  OK|
 | W-Mom                | 0.93 | 2.5E-06 | 2.0E-04 |       6.7E-02  OK|
 | P-Mass               | 0.96 | 2.4E-06 | 1.9E-04 |  9.9  6.4E-02  OK|
 +----------------------+------+---------+---------+------------------+
 | H-Energy             | 0.93 | 2.8E-04 | 3.6E-03 |       1.0E-02  OK|
 | T-Energy             | 0.94 | 6.3E-05 | 3.1E-04 |  5.8  1.0E-02  OK|
 +----------------------+------+---------+---------+------------------+
 | K-TurbKE             | 0.97 | 2.1E-03 | 1.1E-02 |  6.2  2.2E-03  OK|
 | E-Diss.K             | 0.94 | 4.0E-03 | 2.2E-02 |  7.6  1.1E-02  OK|
 +----------------------+------+---------+---------+------------------+

 ======================================================================
 OUTER LOOP ITERATION =   33                    CPU SECONDS = 1.651E+02
 ----------------------------------------------------------------------
 |       Equation       | Rate | RMS Res | Max Res |  Linear Solution |
 +----------------------+------+---------+---------+------------------+
 | U-Mom                | 0.91 | 2.2E-04 | 2.2E-03 |       3.9E-03  OK|
 | V-Mom                | 0.92 | 7.5E-06 | 4.1E-04 |       3.7E-02  OK|
 | W-Mom                | 0.93 | 2.3E-06 | 2.0E-04 |       6.4E-02  OK|
 | P-Mass               | 0.96 | 2.3E-06 | 1.9E-04 |  9.9  6.0E-02  OK|
 +----------------------+------+---------+---------+------------------+
 | H-Energy             | 0.93 | 2.6E-04 | 3.4E-03 |       1.1E-02  OK|
 | T-Energy             | 0.95 | 6.0E-05 | 3.0E-04 |  5.8  1.1E-02  OK|
 +----------------------+------+---------+---------+------------------+
 | K-TurbKE             | 0.97 | 2.1E-03 | 1.1E-02 |  6.1  2.0E-03  OK|
 | E-Diss.K             | 0.94 | 3.8E-03 | 2.2E-02 |  7.5  1.1E-02  OK|
 +----------------------+------+---------+---------+------------------+

 ======================================================================
 OUTER LOOP ITERATION =   34                    CPU SECONDS = 1.700E+02
 ----------------------------------------------------------------------
 |       Equation       | Rate | RMS Res | Max Res |  Linear Solution |
 +----------------------+------+---------+---------+------------------+
 | U-Mom                | 0.90 | 2.0E-04 | 2.1E-03 |       3.9E-03  OK|
 | V-Mom                | 0.91 | 6.8E-06 | 3.9E-04 |       3.6E-02  OK|
 | W-Mom                | 0.93 | 2.2E-06 | 1.9E-04 |       6.1E-02  OK|
 | P-Mass               | 0.96 | 2.2E-06 | 1.9E-04 |  9.9  5.7E-02  OK|
 +----------------------+------+---------+---------+------------------+
 | H-Energy             | 0.93 | 2.4E-04 | 3.4E-03 |       1.0E-02  OK|
 | T-Energy             | 0.95 | 5.7E-05 | 2.9E-04 |  5.8  1.0E-02  OK|
 +----------------------+------+---------+---------+------------------+
 | K-TurbKE             | 0.97 | 2.0E-03 | 1.1E-02 |  6.2  2.0E-03  OK|
 | E-Diss.K             | 0.94 | 3.5E-03 | 2.1E-02 |  7.6  1.1E-02  OK|
 +----------------------+------+---------+---------+------------------+

 ======================================================================
 OUTER LOOP ITERATION =   35                    CPU SECONDS = 1.750E+02
 ----------------------------------------------------------------------
 |       Equation       | Rate | RMS Res | Max Res |  Linear Solution |
 +----------------------+------+---------+---------+------------------+
 | U-Mom                | 0.90 | 1.8E-04 | 2.0E-03 |       3.9E-03  OK|
 | V-Mom                | 0.91 | 6.2E-06 | 3.7E-04 |       3.5E-02  OK|
 | W-Mom                | 0.93 | 2.0E-06 | 1.8E-04 |       5.8E-02  OK|
 | P-Mass               | 0.95 | 2.1E-06 | 1.9E-04 |  9.9  5.4E-02  OK|
 +----------------------+------+---------+---------+------------------+
 | H-Energy             | 0.93 | 2.2E-04 | 3.3E-03 |       9.9E-03  OK|
 | T-Energy             | 0.95 | 5.4E-05 | 2.7E-04 |  5.8  9.9E-03  OK|
 +----------------------+------+---------+---------+------------------+
 | K-TurbKE             | 0.97 | 1.9E-03 | 1.1E-02 |  6.2  1.9E-03  OK|
 | E-Diss.K             | 0.95 | 3.4E-03 | 2.0E-02 |  7.6  1.1E-02  OK|
 +----------------------+------+---------+---------+------------------+

 ======================================================================
 |                        Timescale Information                       |
 ----------------------------------------------------------------------
 |       Equation       |         Type          |      Timescale      |
 +----------------------+-----------------------+---------------------+
 | U-Mom-FluidDom       | Auto Timescale        |     2.72429E-01     |
 | V-Mom-FluidDom       | Auto Timescale        |     2.72429E-01     |
 | W-Mom-FluidDom       | Auto Timescale        |     2.72429E-01     |
 +----------------------+-----------------------+---------------------+
 | H-Energy-FluidDom    | Auto Timescale        |     2.72429E-01     |
 | T-Energy-TubeDom     | Auto Timescale        |     1.03598E+04     |
 +----------------------+-----------------------+---------------------+
 | K-TurbKE-FluidDom    | Auto Timescale        |     2.72429E-01     |
 | E-Diss.K-FluidDom    | Auto Timescale        |     2.72429E-01     |
 +----------------------+-----------------------+---------------------+

 ======================================================================
 OUTER LOOP ITERATION =   36                    CPU SECONDS = 1.799E+02
 ----------------------------------------------------------------------
 |       Equation       | Rate | RMS Res | Max Res |  Linear Solution |
 +----------------------+------+---------+---------+------------------+
 | U-Mom                | 0.89 | 1.6E-04 | 1.9E-03 |       3.9E-03  OK|
 | V-Mom                | 0.90 | 5.5E-06 | 3.5E-04 |       3.4E-02  OK|
 | W-Mom                | 0.92 | 1.9E-06 | 1.7E-04 |       5.4E-02  OK|
 | P-Mass               | 0.95 | 2.0E-06 | 1.9E-04 |  9.9  5.0E-02  OK|
 +----------------------+------+---------+---------+------------------+
 | H-Energy             | 0.93 | 2.0E-04 | 3.2E-03 |       9.1E-03  OK|
[...]
 | V-Mom                | 1.00 | 5.5E-08 | 7.0E-07 |       3.1E-02  OK|
 | W-Mom                | 1.06 | 6.1E-08 | 1.0E-06 |       2.0E-02  OK|
 | P-Mass               | 1.01 | 3.7E-08 | 4.6E-07 |  5.4  1.5E-02  OK|
 +----------------------+------+---------+---------+------------------+
 | H-Energy             | 0.89 | 1.2E-07 | 2.4E-06 |       9.6E-03  OK|
 | T-Energy             | 1.00 | 1.0E-06 | 4.4E-06 |  5.8  9.6E-03  OK|
 +----------------------+------+---------+---------+------------------+
 | K-TurbKE             | 0.97 | 5.2E-08 | 4.5E-07 |  6.1  2.3E-02  OK|
 | E-Diss.K             | 2.65 | 3.2E-07 | 2.6E-06 |  7.6  9.0E-03  OK|
 +----------------------+------+---------+---------+------------------+

 ======================================================================
 OUTER LOOP ITERATION =  199                    CPU SECONDS = 9.705E+02
 ----------------------------------------------------------------------
 |       Equation       | Rate | RMS Res | Max Res |  Linear Solution |
 +----------------------+------+---------+---------+------------------+
 | U-Mom                | 0.49 | 4.8E-08 | 6.1E-07 |       1.6E-02  OK|
 | V-Mom                | 0.99 | 5.5E-08 | 7.1E-07 |       3.2E-02  OK|
 | W-Mom                | 0.95 | 5.8E-08 | 9.6E-07 |       2.0E-02  OK|
 | P-Mass               | 1.00 | 3.7E-08 | 5.6E-07 |  5.4  1.7E-02  OK|
 +----------------------+------+---------+---------+------------------+
 | H-Energy             | 0.99 | 1.2E-07 | 2.8E-06 |       9.6E-03  OK|
 | T-Energy             | 1.00 | 1.0E-06 | 4.1E-06 |  5.8  9.6E-03  OK|
 +----------------------+------+---------+---------+------------------+
 | K-TurbKE             | 0.96 | 5.0E-08 | 4.5E-07 |  6.1  1.3E-02  OK|
 | E-Diss.K             | 0.61 | 1.9E-07 | 1.7E-06 |  7.6  1.0E-02  OK|
 +----------------------+------+---------+---------+------------------+

 ======================================================================
 OUTER LOOP ITERATION =  200                    CPU SECONDS = 9.753E+02
 ----------------------------------------------------------------------
 |       Equation       | Rate | RMS Res | Max Res |  Linear Solution |
 +----------------------+------+---------+---------+------------------+
 | U-Mom                | 1.08 | 5.1E-08 | 5.1E-07 |       1.1E-02  OK|
 | V-Mom                | 0.96 | 5.2E-08 | 6.0E-07 |       3.2E-02  OK|
 | W-Mom                | 0.99 | 5.7E-08 | 8.2E-07 |       2.0E-02  OK|
 | P-Mass               | 1.00 | 3.7E-08 | 4.8E-07 |  5.4  1.6E-02  OK|
 +----------------------+------+---------+---------+------------------+
 | H-Energy             | 0.97 | 1.2E-07 | 3.0E-06 |       7.9E-03  OK|
 | T-Energy             | 1.00 | 1.0E-06 | 4.2E-06 |  5.8  7.9E-03  OK|
 +----------------------+------+---------+---------+------------------+
 | K-TurbKE             | 0.90 | 4.5E-08 | 4.9E-07 |  6.1  1.2E-02  OK|
 | E-Diss.K             | 0.68 | 1.3E-07 | 1.7E-06 |  7.6  7.0E-03  OK|
 +----------------------+------+---------+---------+------------------+
                   
 CFD Solver finished: Thu Jun 04 15:15:53 2015
 CFD Solver wall clock seconds: 9.7559E+02

 ======================================================================
              Termination and Interrupt Condition Summary
 ======================================================================
    
 CFD Solver: Run duration reached
   (Maximum number of outer iterations)

 ======================================================================
              Boundary Flow and Total Source Term Summary
 ======================================================================

 +--------------------------------------------------------------------+
 |                           U-Mom-FluidDom                           |
 +--------------------------------------------------------------------+
 Boundary         : Default Fluid Solid Interface Side 1   -2.5453E-03
 Boundary         : Inlet                                   5.2949E-03
 Boundary         : Outlet                                 -2.7494E-03
 Domain Interface : SymmetrieFluid (Side 1)                -2.8098E-02
 Domain Interface : SymmetrieFluid (Side 2)                 2.8098E-02
                                                           -----------
 Domain Imbalance :                                         1.1548E-07

 +--------------------------------------------------------------------+
 |                           V-Mom-FluidDom                           |
 +--------------------------------------------------------------------+
 Boundary         : Default Fluid Solid Interface Side 1   -2.3909E-01
 Boundary         : Inlet                                   4.1075E-08
 Boundary         : Outlet                                 -1.7800E-04
 Domain Interface : SymmetrieFluid (Side 1)                 9.9831E-02
 Domain Interface : SymmetrieFluid (Side 2)                 1.3944E-01
                                                           -----------
 Domain Imbalance :                                        -2.9802E-08

 +--------------------------------------------------------------------+
 |                           W-Mom-FluidDom                           |
 +--------------------------------------------------------------------+
 Boundary         : Default Fluid Solid Interface Side 1    6.4064E-02
 Boundary         : Inlet                                  -1.0933E-08
 Boundary         : Outlet                                  4.7349E-05
 Domain Interface : SymmetrieFluid (Side 1)                 1.7292E-01
 Domain Interface : SymmetrieFluid (Side 2)                -2.3703E-01
                                                           -----------
 Domain Imbalance :                                        -2.9802E-08

 +--------------------------------------------------------------------+
 |                          P-Mass-FluidDom                           |
 +--------------------------------------------------------------------+
 Boundary         : Inlet                                   2.6010E-02
 Boundary         : Outlet                                 -2.6010E-02
 Domain Interface : SymmetrieFluid (Side 1)                -4.1400E-04
 Domain Interface : SymmetrieFluid (Side 2)                 4.1399E-04
                                                           -----------
 Domain Imbalance :                                         4.3365E-09

 +--------------------------------------------------------------------+
 |                         H-Energy-FluidDom                          |
 +--------------------------------------------------------------------+
 Boundary         : Outlet                                 -3.4185E+01
 Domain Interface : Default Fluid Solid Interface (Side 1)  3.4185E+01
 Domain Interface : SymmetrieFluid (Side 1)                -2.5886E+01
 Domain Interface : SymmetrieFluid (Side 2)                 2.5886E+01
                                                           -----------
 Domain Imbalance :                                        -1.1444E-05

 +--------------------------------------------------------------------+
 |                          T-Energy-TubeDom                          |
 +--------------------------------------------------------------------+
 Boundary         : TubeOuterWallHeatex                     3.4185E+01
 Domain Interface : Default Fluid Solid Interface (Side 2) -3.4185E+01
 Domain Interface : Domain Interface 1 (Side 1)             2.2447E-02
 Domain Interface : Domain Interface 1 (Side 2)            -2.2447E-02
                                                           -----------
 Domain Imbalance :                                        -2.2873E-05


 +--------------------------------------------------------------------+
 |                     Normalised Imbalance Summary                   |
 +--------------------------------------------------------------------+
 |       Equation       |      Maximum Flow     |     Imbalance (%)   |
 +--------------------------------------------------------------------+
 | U-Mom-FluidDom       |       2.3909E-01      |        0.0000       |
 | V-Mom-FluidDom       |       2.3909E-01      |       -0.0000       |
 | W-Mom-FluidDom       |       2.3909E-01      |       -0.0000       |
 | P-Mass-FluidDom      |       2.6010E-02      |        0.0000       |
 +----------------------+-----------------------+---------------------+
 | H-Energy-FluidDom    |       3.4185E+01      |       -0.0000       |
 | T-Energy-TubeDom     |       3.4185E+01      |       -0.0001       |
 +----------------------+-----------------------+---------------------+

 ======================================================================
                     Wall Force and Moment Summary
 ======================================================================
                                                                          
 Notes:
 1. Pressure integrals exclude the reference pressure.  To include
    it, set the expert parameter 'include pref in forces = t'.


 +--------------------------------------------------------------------+
 |                      Pressure Force On Walls                       |
 +--------------------------------------------------------------------+
                                    X-Comp.      Y-Comp.      Z-Comp.

 Domain Group: FluidDom

 Default Fluid Solid Interface Si-8.1547E-23   2.3909E-01  -6.4064E-02
                                  -----------  -----------  -----------
 Domain Group Totals :           -8.1547E-23   2.3909E-01  -6.4064E-02


 +--------------------------------------------------------------------+
 |                       Viscous Force On Walls                       |
 +--------------------------------------------------------------------+
                                    X-Comp.      Y-Comp.      Z-Comp.

 Domain Group: FluidDom

 Default Fluid Solid Interface Si 2.5453E-03   4.1111E-08  -2.5849E-08
                                  -----------  -----------  -----------
 Domain Group Totals :            2.5453E-03   4.1111E-08  -2.5849E-08


 +--------------------------------------------------------------------+
 |                      Pressure Moment On Walls                      |
 +--------------------------------------------------------------------+
                                    X-Comp.      Y-Comp.      Z-Comp.

 Domain Group: FluidDom

 Default Fluid Solid Interface Si-6.2864E-09   6.5652E-02   2.4502E-01
                                  -----------  -----------  -----------
 Domain Group Totals :           -6.2864E-09   6.5652E-02   2.4502E-01


 +--------------------------------------------------------------------+
 |                       Viscous Moment On Walls                      |
 +--------------------------------------------------------------------+
                                    X-Comp.      Y-Comp.      Z-Comp.

 Domain Group: FluidDom

 Default Fluid Solid Interface Si-4.1967E-10  -1.9896E-05  -7.4003E-05
                                  -----------  -----------  -----------
 Domain Group Totals :           -4.1967E-10  -1.9896E-05  -7.4003E-05


 +--------------------------------------------------------------------+
 |                   Locations of Maximum Residuals                   |
 +--------------------------------------------------------------------+
 |       Equation       |      Domain Name      |     Node Number     |
 +--------------------------------------------------------------------+
 | U-Mom                | FluidDom              |          37611      |
 | V-Mom                | FluidDom              |          28726      |
 | W-Mom                | FluidDom              |          36596      |
 | P-Mass               | FluidDom              |          32018      |
 +----------------------+-----------------------+---------------------+
 | H-Energy             | FluidDom              |          32354      |
 | T-Energy             | TubeDom               |          31832      |
 +----------------------+-----------------------+---------------------+
 | K-TurbKE             | FluidDom              |          30962      |
 | E-Diss.K             | FluidDom              |          34753      |
 +----------------------+-----------------------+---------------------+

 ======================================================================
 |                     False Transient Information                    |
 +--------------------------------------------------------------------+
 |       Equation       |         Type          | Elapsed Pseudo-Time |
 +--------------------------------------------------------------------+
 | U-Mom-FluidDom       | Auto Timescale        |     5.44859E+01     |
 | V-Mom-FluidDom       | Auto Timescale        |     5.44859E+01     |
 | W-Mom-FluidDom       | Auto Timescale        |     5.44859E+01     |
 +----------------------+-----------------------+---------------------+
 | H-Energy-FluidDom    | Auto Timescale        |     5.44859E+01     |
 | T-Energy-TubeDom     | Auto Timescale        |     2.07195E+06     |
 +----------------------+-----------------------+---------------------+
 | K-TurbKE-FluidDom    | Auto Timescale        |     5.44859E+01     |
 | E-Diss.K-FluidDom    | Auto Timescale        |     5.44859E+01     |
 +----------------------+-----------------------+---------------------+

 +--------------------------------------------------------------------+
 |                     Average Scale Information                      |
 +--------------------------------------------------------------------+

 Domain Name : FluidDom
     Global Length                                         = 9.0810E-02
     Minimum Extent                                        = 1.4662E-02
     Maximum Extent                                        = 3.0000E+00
     Density                                               = 1.0420E+03
     Dynamic Viscosity                                     = 8.8990E-04
     Velocity                                              = 7.6685E-02
     Advection Time                                        = 1.1842E+00
     Reynolds Number                                       = 8.1539E+03
     Thermal Conductivity                                  = 6.0690E-01
     Specific Heat Capacity at Constant Pressure           = 3.4810E+03
     Prandtl Number                                        = 5.1042E+00
     Temperature Range                                     = 1.1269E+00

 Domain Name : TubeDom
     Global Length                                         = 4.6457E-02
     Minimum Extent                                        = 8.8349E-03
     Maximum Extent                                        = 3.0000E+00
     Density                                               = 9.6000E+02
     Thermal Conductivity                                  = 3.8000E-01
     Specific Heat Capacity at Constant Pressure           = 1.9000E+03
     Thermal Diffusivity                                   = 2.0833E-07
     Average Diffusion Timescale                           = 1.0360E+04
     Minimum Diffusion Timescale                           = 3.7467E+02
     Maximum Diffusion Timescale                           = 4.3200E+07
     Temperature Range                                     = 1.0134E+01

 +--------------------------------------------------------------------+
 |                     Variable Range Information                     |
 +--------------------------------------------------------------------+

 Domain Name : FluidDom
 +--------------------------------------------------------------------+
 |      Variable Name                         |    min    |    max    |
 +--------------------------------------------------------------------+
 | Density                                    |  1.04E+03 |  1.04E+03 |
 | Specific Heat Capacity at Constant Pressure|  3.48E+03 |  3.48E+03 |
 | Dynamic Viscosity                          |  8.90E-04 |  8.90E-04 |
 | Thermal Conductivity                       |  6.07E-01 |  6.07E-01 |
 | Static Entropy                             | -1.17E-02 |  1.43E+01 |
 | Velocity u                                 |  4.82E-02 |  1.28E-01 |
 | Velocity v                                 | -1.36E-03 |  9.26E-03 |
 | Velocity w                                 | -5.48E-03 |  2.62E-03 |
 | Pressure                                   | -4.53E-01 |  1.08E+01 |
 | Turbulence Kinetic Energy                  |  1.19E-05 |  1.41E-04 |
 | Turbulence Eddy Dissipation                |  1.67E-06 |  4.36E-04 |
 | Eddy Viscosity                             |  4.04E-03 |  2.63E-02 |
 | Temperature                                |  2.73E+02 |  2.74E+02 |
 | Static Enthalpy                            | -3.05E+00 |  3.92E+03 |
 +--------------------------------------------------------------------+

 Domain Name : TubeDom
 +--------------------------------------------------------------------+
 |      Variable Name                         |    min    |    max    |
 +--------------------------------------------------------------------+
 | Density                                    |  9.60E+02 |  9.60E+02 |
 | Specific Heat Capacity at Constant Pressure|  1.90E+03 |  1.90E+03 |
 | Thermal Conductivity                       |  3.80E-01 |  3.80E-01 |
 | Static Entropy                             | -1.66E+02 | -9.72E+01 |
 | Temperature                                |  2.73E+02 |  2.83E+02 |
 | Static Enthalpy                            | -4.75E+04 | -2.82E+04 |
 +--------------------------------------------------------------------+

 +--------------------------------------------------------------------+
 |               CPU Requirements of Numerical Solution               |
 +--------------------------------------------------------------------+

 Subsystem Name                  Discretization       Linear Solution
                                (secs.   %total)     (secs.   %total) 
 ----------------------------------------------------------------------
 Momentum and Mass              2.92E+02  29.7 %     3.77E+01   3.8 %
 Heat Transfer                  3.96E+02  40.2 %     6.01E+01   6.1 %
 TurbKE and Diss.K              1.07E+02  10.9 %     3.23E+01   3.3 %
                                -------- -------     --------  ------
 Subsystem Summary              7.94E+02  80.8 %     1.30E+02  13.2 %

 Variable Updates               4.80E+01    4.9 %
 GGI Intersection               1.63E+00    0.2 %
 Search Calculations            9.40E-02    0.0 %
 File Reading                   4.70E-02    0.0 %
 File Writing                   1.47E+00    0.1 %
 Miscellaneous                  7.12E+00    0.7 %
                                --------
 Total                          9.83E+02

 +--------------------------------------------------------------------+
 |                   Job Information at End of Run                    |
 +--------------------------------------------------------------------+

 Host computer:  NODE18 (PID:4592)

 Job finished:   Thu Jun 04 15:15:56 2015

 Total wall clock time: 9.828E+02 seconds
             or: (          0:         0:        16:    22.750 )
                 (       Days:     Hours:   Minutes:   Seconds )

End of solution stage.

 +--------------------------------------------------------------------+
 | The results from this run of the ANSYS CFX Solver have been        |
 | written to                                                         |
 | \\shpc0001\home\HPCHSR01\AppData\pipe02_6\pipe02_6_001.res         |
 +--------------------------------------------------------------------+


This run of the ANSYS CFX Solver has finished.
