 This run of the CFX-15.0.7 Solver started at 07:46:14 on 21 May 2015 by
 user MpiUser on RD000D3A20748E (intel_xeon64.sse2_winnt) using the
 command:
 
  "\\hsransys.file.core.windows.net\main\apps\ANSYS Inc\v150\CFX\bin\perllib\cfx5solve.pl"
    -def pipe06.def -chdir
    \\10.10.13.13\C\Resources\directory\ac06609b2c804792bc1dc56b4bbdc10d.HSR.AzureEE.HpcWorkerRole.jobdata\job-4
    -start-method MSMPI2 -part 8
 
 Point Releases and Patches installed:
 
  ANSYS, Inc. Products 15.0.7
  ANSYS Mechanical Products 15.0.7
  ANSYS Autodyn 15.0.7
  ANSYS LS-DYNA 15.0.7
  ANSYS CFX (includes ANSYS CFD-Post) 15.0.7
  ANSYS Fluent (includes ANSYS CFD-Post) 15.0.7
  ANSYS TurboGrid 15.0.7
  ANSYS Polyflow (includes ANSYS CFD-Post) 15.0.7
  ANSYS Aqwa 15.0.7
  ANSYS ICEM CFD 15.0.7
  ANSYS Icepak (includes ANSYS CFD-Post) 15.0.7
  Catia, Version 6 15.0.7
  ANSYS, Inc. License Manager 15.0.7
 
 Setting up CFX Solver run ...
 

 +--------------------------------------------------------------------+
 |                              Warning!                              |
 |                                                                    |
 | The working directory is a UNC path, but the Windows command shell |
 | is currently not configured to support UNC paths. This may cause   |
 | failure of the CFX Solver.                                         |
 |                                                                    |
 | Command shell support for UNC paths can be enabled by setting the  |
 | Windows registry key DisableUNCCheck.                              |
 +--------------------------------------------------------------------+


 +--------------------------------------------------------------------+
 |                                                                    |
 |                    CFX Command Language Upgrade                    |
 |                                                                    |
 +--------------------------------------------------------------------+

 Added /SIMULATION CONTROL/EXECUTION CONTROL/EXECUTABLE SELECTION/Double
 Precision = Off.
 

 +--------------------------------------------------------------------+
 |                                                                    |
 |                    CFX Command Language for Run                    |
 |                                                                    |
 +--------------------------------------------------------------------+

 LIBRARY:
   CEL:
     EXPRESSIONS:
       DeltaT = probe(T)@MP3-273.15[K]
     END
   END
   MATERIAL: PE100RC
     Material Group = CHT Solids
     Option = Pure Substance
     Thermodynamic State = Solid
     PROPERTIES:
       Option = General Material
       EQUATION OF STATE:
         Density = 960 [kg m^-3]
         Molar Mass = 1.0 [kg kmol^-1]
         Option = Value
       END
       SPECIFIC HEAT CAPACITY:
         Option = Value
         Specific Heat Capacity = 1900 [J kg^-1 K^-1]
       END
       THERMAL CONDUCTIVITY:
         Option = Value
         Thermal Conductivity = 0.38 [W m^-1 K^-1]
       END
     END
   END
   MATERIAL: Water Glycol Mixture
     Material Description = Water (liquid)
     Material Group = Water Data,Constant Property Liquids
     Option = Pure Substance
     Thermodynamic State = Liquid
     PROPERTIES:
       Option = General Material
       EQUATION OF STATE:
         Density = 1042 [kg m^-3]
         Molar Mass = 18.02 [kg kmol^-1]
         Option = Value
       END
       SPECIFIC HEAT CAPACITY:
         Option = Value
         Specific Heat Capacity = 3481 [J kg^-1 K^-1]
         Specific Heat Type = Constant Pressure
       END
       REFERENCE STATE:
         Option = Specified Point
         Reference Pressure = 1 [atm]
         Reference Specific Enthalpy = 0.0 [J/kg]
         Reference Specific Entropy = 0.0 [J/kg/K]
         Reference Temperature = 0 [C]
       END
       DYNAMIC VISCOSITY:
         Dynamic Viscosity = 8.899E-4 [kg m^-1 s^-1]
         Option = Value
       END
       THERMAL CONDUCTIVITY:
         Option = Value
         Thermal Conductivity = 0.6069 [W m^-1 K^-1]
       END
       ABSORPTION COEFFICIENT:
         Absorption Coefficient = 1.0 [m^-1]
         Option = Value
       END
       SCATTERING COEFFICIENT:
         Option = Value
         Scattering Coefficient = 0.0 [m^-1]
       END
       REFRACTIVE INDEX:
         Option = Value
         Refractive Index = 1.0 [m m^-1]
       END
       THERMAL EXPANSIVITY:
         Option = Value
         Thermal Expansivity = 2.57E-04 [K^-1]
       END
     END
   END
 END
 FLOW: Flow Analysis 1
   SOLUTION UNITS:
     Angle Units = [rad]
     Length Units = [m]
     Mass Units = [kg]
     Solid Angle Units = [sr]
     Temperature Units = [K]
     Time Units = [s]
   END
   ANALYSIS TYPE:
     Option = Steady State
     EXTERNAL SOLVER COUPLING:
       Option = None
     END
   END
   DOMAIN: FluidDom
     Coord Frame = Coord 0
     Domain Type = Fluid
     Location = B446
     BOUNDARY: Default Fluid Solid Interface Side 1
       Boundary Type = INTERFACE
       Location = F449.446,F450.446,F452.446,F453.446,F454.446
       BOUNDARY CONDITIONS:
         HEAT TRANSFER:
           Option = Conservative Interface Flux
         END
         MASS AND MOMENTUM:
           Option = No Slip Wall
         END
         WALL ROUGHNESS:
           Option = Smooth Wall
         END
       END
     END
     BOUNDARY: Domain Interface 1 Side 1 1
       Boundary Type = INTERFACE
       Location = FluidSym01
       BOUNDARY CONDITIONS:
         HEAT TRANSFER:
           Option = Conservative Interface Flux
         END
         MASS AND MOMENTUM:
           Option = Conservative Interface Flux
         END
         TURBULENCE:
           Option = Conservative Interface Flux
         END
       END
     END
     BOUNDARY: Domain Interface 2 Side 1
       Boundary Type = INTERFACE
       Location = FluidSym02
       BOUNDARY CONDITIONS:
         HEAT TRANSFER:
           Option = Conservative Interface Flux
         END
         MASS AND MOMENTUM:
           Option = Conservative Interface Flux
         END
         TURBULENCE:
           Option = Conservative Interface Flux
         END
       END
     END
     BOUNDARY: Inlet
       Boundary Type = INLET
       Location = F447.446
       BOUNDARY CONDITIONS:
         FLOW REGIME:
           Option = Subsonic
         END
         HEAT TRANSFER:
           Option = Static Temperature
           Static Temperature = 273.15 [K]
         END
         MASS AND MOMENTUM:
           Normal Speed = 0.05 [m s^-1]
           Option = Normal Speed
         END
         TURBULENCE:
           Option = Medium Intensity and Eddy Viscosity Ratio
         END
       END
     END
     BOUNDARY: Outlet
       Boundary Type = OUTLET
       Location = F451.446
       BOUNDARY CONDITIONS:
         FLOW REGIME:
           Option = Subsonic
         END
         MASS AND MOMENTUM:
           Normal Speed = 0.05 [m s^-1]
           Option = Normal Speed
         END
       END
     END
     DOMAIN MODELS:
       BUOYANCY MODEL:
         Option = Non Buoyant
       END
       DOMAIN MOTION:
         Option = Stationary
       END
       MESH DEFORMATION:
         Option = None
       END
       REFERENCE PRESSURE:
         Reference Pressure = 1 [atm]
       END
     END
     FLUID DEFINITION: Fluid 1
       Material = Water Glycol Mixture
       Option = Material Library
       MORPHOLOGY:
         Option = Continuous Fluid
       END
     END
     FLUID MODELS:
       COMBUSTION MODEL:
         Option = None
       END
       HEAT TRANSFER MODEL:
         Option = Thermal Energy
       END
       THERMAL RADIATION MODEL:
         Option = None
       END
       TURBULENCE MODEL:
         Option = k epsilon
       END
       TURBULENT WALL FUNCTIONS:
         Option = Scalable
       END
     END
     SOURCE POINT: Origin
       Cartesian Coordinates = 0.0[m],0.0[m],0.0[m]
       Option = Cartesian Coordinates
     END
   END
   DOMAIN: TubeDom
     Coord Frame = Coord 0
     Domain Type = Solid
     Location = B378,B662
     BOUNDARY: Default Fluid Solid Interface Side 2
       Boundary Type = INTERFACE
       Location = \
         F379.378,F380.378,F381.378,F382.378,F383.378,F666.662,F668.662,F670.6\
         62,F672.662,F674.662
       BOUNDARY CONDITIONS:
         HEAT TRANSFER:
           Option = Conservative Interface Flux
         END
       END
     END
     BOUNDARY: Domain Interface 1 Side 1
       Boundary Type = INTERFACE
       Location = TubeIntFace01
       BOUNDARY CONDITIONS:
         HEAT TRANSFER:
           Option = Conservative Interface Flux
         END
       END
     END
     BOUNDARY: Domain Interface 1 Side 2
       Boundary Type = INTERFACE
       Location = TubeIntFace02
       BOUNDARY CONDITIONS:
         HEAT TRANSFER:
           Option = Conservative Interface Flux
         END
       END
     END
     BOUNDARY: Domain Interface 2 Side 2
       Boundary Type = INTERFACE
       Location = TubeSymFace01
       BOUNDARY CONDITIONS:
         HEAT TRANSFER:
           Option = Conservative Interface Flux
         END
       END
     END
     BOUNDARY: SymmetrieSolid Side 1
       Boundary Type = INTERFACE
       Location = TubeSymFace02
       BOUNDARY CONDITIONS:
         HEAT TRANSFER:
           Option = Conservative Interface Flux
         END
       END
     END
     BOUNDARY: TubeDom Default
       Boundary Type = WALL
       Location = \
         F390.378,F391.378,F392.378,F393.378,F394.378,F676.662,F677.662,F678.6\
         62,F679.662,F680.662
       BOUNDARY CONDITIONS:
         HEAT TRANSFER:
           Option = Adiabatic
         END
       END
     END
     BOUNDARY: TubeOuterWallAdia
       Boundary Type = WALL
       Location = TubeOuterWall01
       BOUNDARY CONDITIONS:
         HEAT TRANSFER:
           Option = Adiabatic
         END
       END
     END
     BOUNDARY: TubeOuterWallHeatex
       Boundary Type = WALL
       Location = TubeOuterWall02
       BOUNDARY CONDITIONS:
         HEAT TRANSFER:
           Fixed Temperature = 283.15 [K]
           Option = Fixed Temperature
         END
       END
     END
     DOMAIN MODELS:
       DOMAIN MOTION:
         Option = Stationary
       END
       MESH DEFORMATION:
         Option = None
       END
     END
     SOLID DEFINITION: Solid 1
       Material = PE100RC
       Option = Material Library
       MORPHOLOGY:
         Option = Continuous Solid
       END
     END
     SOLID MODELS:
       HEAT TRANSFER MODEL:
         Option = Thermal Energy
       END
       THERMAL RADIATION MODEL:
         Option = None
       END
     END
   END
   DOMAIN INTERFACE: Default Fluid Solid Interface
     Boundary List1 = Default Fluid Solid Interface Side 1
     Boundary List2 = Default Fluid Solid Interface Side 2
     Interface Type = Fluid Solid
     INTERFACE MODELS:
       Option = General Connection
       FRAME CHANGE:
         Option = None
       END
       PITCH CHANGE:
         Option = None
       END
     END
     MESH CONNECTION:
       Option = Automatic
     END
   END
   DOMAIN INTERFACE: Domain Interface 1
     Boundary List1 = Domain Interface 1 Side 1
     Boundary List2 = Domain Interface 1 Side 2
     Interface Type = Solid Solid
     INTERFACE MODELS:
       Option = General Connection
       FRAME CHANGE:
         Option = None
       END
       PITCH CHANGE:
         Option = None
       END
     END
     MESH CONNECTION:
       Option = Automatic
     END
   END
   DOMAIN INTERFACE: SymmetrieFluid
     Boundary List1 = Domain Interface 1 Side 1 1
     Boundary List2 = Domain Interface 2 Side 1
     Interface Type = Fluid Fluid
     INTERFACE MODELS:
       Option = Rotational Periodicity
       AXIS DEFINITION:
         Option = Coordinate Axis
         Rotation Axis = Coord 0.1
       END
     END
     MESH CONNECTION:
       Option = GGI
       INTERSECTION CONTROL:
         Option = Direct
         Periodic Axial Radial Tolerance = 0.001
       END
     END
   END
   DOMAIN INTERFACE: SymmetrieSolid
     Boundary List1 = Domain Interface 2 Side 2
     Boundary List2 = SymmetrieSolid Side 1
     Interface Type = Solid Solid
     INTERFACE MODELS:
       Option = Rotational Periodicity
       AXIS DEFINITION:
         Option = Coordinate Axis
         Rotation Axis = Coord 0.1
       END
     END
     MESH CONNECTION:
       Option = Automatic
       INTERSECTION CONTROL:
         Option = Direct
         Periodic Axial Radial Tolerance = 0.0001
       END
     END
   END
   OUTPUT CONTROL:
     MONITOR OBJECTS:
       MONITOR BALANCES:
         Option = Full
       END
       MONITOR FORCES:
         Option = Full
       END
       MONITOR PARTICLES:
         Option = Full
       END
       MONITOR POINT: MP1
         Cartesian Coordinates = 2.5 [m], 0 [m], 0 [m]
         Coord Frame = Coord 0
         Option = Cartesian Coordinates
         Output Variables List = Courant Number,Pressure,Temperature,Velocity
         MONITOR LOCATION CONTROL:
           Interpolation Type = Nearest Vertex
         END
         POSITION UPDATE FREQUENCY:
           Option = Initial Mesh Only
         END
       END
       MONITOR POINT: MP2
         Cartesian Coordinates = 2.5 [m], 0.012 [m], 0 [m]
         Coord Frame = Coord 0
         Option = Cartesian Coordinates
         Output Variables List = Courant Number,Pressure,Temperature,Velocity
         MONITOR LOCATION CONTROL:
           Interpolation Type = Nearest Vertex
         END
         POSITION UPDATE FREQUENCY:
           Option = Initial Mesh Only
         END
       END
       MONITOR POINT: MP3
         Cartesian Coordinates = 2.5 [m], 0.024 [m], 0 [m]
         Coord Frame = Coord 0
         Option = Cartesian Coordinates
         Output Variables List = Courant Number,Pressure,Temperature,Velocity
         MONITOR LOCATION CONTROL:
           Interpolation Type = Nearest Vertex
         END
         POSITION UPDATE FREQUENCY:
           Option = Initial Mesh Only
         END
       END
       MONITOR POINT: MP3_1
         Coord Frame = Coord 0
         Expression Value = DeltaT
         Option = Expression
       END
       MONITOR RESIDUALS:
         Option = Full
       END
       MONITOR TOTALS:
         Option = Full
       END
     END
     RESULTS:
       File Compression Level = Default
       Option = Standard
     END
   END
   SOLVER CONTROL:
     Turbulence Numerics = First Order
     ADVECTION SCHEME:
       Option = High Resolution
     END
     CONVERGENCE CONTROL:
       Length Scale Option = Conservative
       Maximum Number of Iterations = 200
       Minimum Number of Iterations = 1
       Solid Timescale Control = Auto Timescale
       Timescale Control = Auto Timescale
       Timescale Factor = 1.0
     END
     CONVERGENCE CRITERIA:
       Residual Target = 0.000001
       Residual Type = RMS
     END
     DYNAMIC MODEL CONTROL:
       Global Dynamic Model Control = On
     END
   END
 END
 COMMAND FILE:
   Version = 16.0
   Results Version = 15.0.7
 END
 SIMULATION CONTROL:
   EXECUTION CONTROL:
     EXECUTABLE SELECTION:
       Double Precision = Off
     END
     PARALLEL HOST LIBRARY:
       HOST DEFINITION: rd000d3a20748e
         Host Architecture String = winnt-amd64
         Installation Root = \\hsransys.file.core.windows.net\main\apps\ANSYS \
           Inc\v%v\CFX
       END
     END
     PARTITIONER STEP CONTROL:
       PARTITIONING TYPE:
         Option = MeTiS
         MeTiS Type = k-way
         Partition Size Rule = Automatic
         Partition Weight Factors = 0.12500, 0.12500, 0.12500, 0.12500, \
           0.12500, 0.12500, 0.12500, 0.12500
       END
     END
     RUN DEFINITION:
       Solver Input File = \
         \\10.10.13.13\C\Resources\directory\ac06609b2c804792bc1dc56b4bbdc10d.\
         HSR.AzureEE.HpcWorkerRole.jobdata\job-4\pipe06.def
       Run Mode = Full
     END
     SOLVER STEP CONTROL:
       PARALLEL ENVIRONMENT:
         Start Method = MSMPI2
         Number of Processes = 8
         Parallel Host List = rd000d3a20748e*8
       END
     END
   END
 END
 

 +--------------------------------------------------------------------+
 |                                                                    |
 |                            Partitioning                            |
 |                                                                    |
 +--------------------------------------------------------------------+




 +--------------------------------------------------------------------+
 |                                                                    |
 |                 ANSYS(R) CFX(R) Partitioner 15.0.7                 |
 |                                                                    |
 | Version 2014.04.10-23.00-131675     Thu Apr 10 23:23:37 GMTDT 2014 |
 |                                                                    |
 |                        Executable Attributes                       |
 |                                                                    |
 |          single-64bit-int32-supfort-optimised-noprof-lcomp         |
 |                                                                    |
 | (C) 2014 ANSYS, Inc.                                               |
 |                                                                    |
 | All rights reserved. Unauthorized use, distribution or duplication |
 | is prohibited. This product is subject to U.S. laws governing      |
 | export and re-export. For full Legal Notice, see documentation.    |
 +--------------------------------------------------------------------+




 +--------------------------------------------------------------------+
 |                  Job Information at Start of Run                   |
 +--------------------------------------------------------------------+

 Run mode:       partitioning run

 +------------------------------+------+--------+----------+----------+
 | Host                         | Mesh |  PID   |     Job Started     |
 |                              | Part |        | DD/MM/YY | hh:mm:ss |
 +------------------------------+------+--------+----------+----------+
 | RD000D3A20748E               |    1 |   3280 | 21/05/15 | 07:46:22 |
 +------------------------------+------+--------+----------+----------+


 +--------------------------------------------------------------------+
 |        Memory Allocated for Run  (Actual usage may be less)        |
 +--------------------------------------------------------------------+

           | Real       | Integer    | Character | Logical  | Double
 ----------+------------+------------+-----------+----------+----------
 Mwords    |      30.99 |      60.99 |      3.38 |     0.12 |     1.20
 Mbytes    |     118.20 |     232.65 |      3.22 |     0.46 |     9.16
 ----------+------------+------------+-----------+----------+----------


 +--------------------------------------------------------------------+
 |                  Host Memory Information (Mbytes)                  |
 +--------------------------------------------------------------------+
 |          Host           |     System     |   Allocated    |   %    |
 +-------------------------+----------------+----------------+--------+
 | RD000D3A20748E          |     57343.55   |       363.69   |   0.63 |
 +-------------------------+----------------+----------------+--------+

 +--------------------------------------------------------------------+
 |                          Mesh Statistics                           |
 +--------------------------------------------------------------------+

 Domain Name : FluidDom

     Total Number of Nodes                                =     1063500

     Total Number of Elements                             =      969853
         Total Number of Prisms                           =        1499
         Total Number of Hexahedrons                      =      968354

     Total Number of Faces                                =      185671

 Domain Name : TubeDom

     Total Number of Nodes                                =       85356

     Total Number of Elements                             =       47720
         Total Number of Hexahedrons                      =       47720

     Total Number of Faces                                =       71690
 
 Global Statistics :

     Global Number of Nodes                               =     1148856

     Global Number of Elements                            =     1017573
         Total Number of Prisms                           =        1499
         Total Number of Hexahedrons                      =     1016074

     Global Number of Faces                               =      257361

 Domain Interface Name : Default Fluid Solid Interface

     Discretization type                                  =         GGI
     Intersection type                                    =      Direct
     Non-overlap area fraction on side 1                  =    9.83E-02
     Non-overlap area fraction on side 2                  =    9.57E-02

 Domain Interface Name : Domain Interface 1

     Discretization type                                  =         GGI
     Intersection type                                    =      Direct
     Non-overlap area fraction on side 1                  =    2.09E-02
     Non-overlap area fraction on side 2                  =    5.72E-02

 Domain Interface Name : SymmetrieFluid

     Discretization type                                  =         GGI
     Intersection type                                    =      Direct
     Non-overlap area fraction on side 1                  =    3.63E-07
     Non-overlap area fraction on side 2                  =    2.99E-07

 Domain Interface Name : SymmetrieSolid

     Discretization type                                  =         1:1
     Intersection type                                    =      Direct

 +--------------------------------------------------------------------+
 |                     Vertex Based Partitioning                      |
 +--------------------------------------------------------------------+

 Partitioning of domain: FluidDom

 - Partitioning tool:       MeTiS multilevel k-way algorithm
 - Number of partitions:             8
 - Number of graph-nodes:      1063500
 - Number of graph-edges:      7474112

 Partitioning of domain: TubeDom

 - Partitioning tool:       MeTiS multilevel k-way algorithm
 - Number of partitions:             8
 - Number of graph-nodes:        81237
 - Number of graph-edges:       421268

 +--------------------------------------------------------------------+
 |                      Partitioning Information                      |
 +--------------------------------------------------------------------+

 Partitioning information for domain: FluidDom

        +------------------+------------------------+-----------------+
        |     Elements     |        Vertices        |     Faces       |
 +------+------------------+------------------------+-----------------+
 | Part |   Number     %   |   Number     %   %Ovlp |  Number     %   |
 +------+------------------+------------------------+-----------------+
 | Full |    969853        |   1063500              |   185671        |
 +------+------------------+------------------------+-----------------+
 |    1 |    123819   12.2 |    138272   12.0   3.5 |    25698   11.4 |
 |    2 |    125567   12.4 |    142635   12.4   7.4 |    27661   12.3 |
 |    3 |    128147   12.7 |    147377   12.8   9.9 |    29878   13.3 |
 |    4 |    129872   12.8 |    150850   13.1  12.1 |    31565   14.0 |
 |    5 |    127001   12.6 |    144360   12.5   7.4 |    28150   12.5 |
 |    6 |    127211   12.6 |    144661   12.6   7.7 |    27994   12.4 |
 |    7 |    125367   12.4 |    140356   12.2   4.1 |    26329   11.7 |
 |    8 |    124917   12.3 |    142257   12.4   7.9 |    27733   12.3 |
 +------+------------------+------------------------+-----------------+
 | Min  |    123819   12.2 |    138272   12.0   3.5 |    25698   11.4 |
 |(part)|           (    1)|           (    1     1)|          (    1)|
 +------+------------------+------------------------+-----------------+
 | Max  |    129872   12.8 |    150850   13.1  12.1 |    31565   14.0 |
 |(part)|           (    4)|           (    4     4)|          (    4)|
 +------+------------------+------------------------+-----------------+
 | Ave  |    126488   12.5 |    143846   12.5   7.6 |    28126   12.5 |
 +------+------------------+------------------------+-----------------+
 | Sum  |   1011901  100.0 |   1150768  100.0   7.6 |   225008  100.0 |
 +------+------------------+------------------------+-----------------+

 Partitioning information for domain: TubeDom

        +------------------+------------------------+-----------------+
        |     Elements     |        Vertices        |     Faces       |
 +------+------------------+------------------------+-----------------+
 | Part |   Number     %   |   Number     %   %Ovlp |  Number     %   |
 +------+------------------+------------------------+-----------------+
 | Full |     47720        |     85356              |    71690        |
 +------+------------------+------------------------+-----------------+
 |    1 |      4689    6.5 |      9972    7.3   0.4 |     9949   10.1 |
 |    2 |      5849    8.1 |     12428    9.1  18.4 |    11345   11.5 |
 |    3 |      7032    9.8 |     14932   10.9  33.1 |    12593   12.8 |
 |    4 |      8162   11.3 |     17324   12.6  43.3 |    13777   14.0 |
 |    5 |     11980   16.6 |     21252   15.5  45.2 |    13100   13.3 |
 |    6 |     10540   14.6 |     18825   13.7  42.0 |    11918   12.1 |
 |    7 |     10949   15.2 |     19145   14.0  41.0 |    11930   12.1 |
 |    8 |     12922   17.9 |     23230   16.9  50.0 |    14087   14.3 |
 +------+------------------+------------------------+-----------------+
 | Min  |      4689    6.5 |      9972    7.3   0.4 |     9949   10.1 |
 |(part)|           (    1)|           (    1     1)|          (    1)|
 +------+------------------+------------------------+-----------------+
 | Max  |     12922   17.9 |     23230   16.9  50.0 |    14087   14.3 |
 |(part)|           (    8)|           (    8     8)|          (    8)|
 +------+------------------+------------------------+-----------------+
 | Ave  |      9015   12.5 |     17139   12.5  37.7 |    12337   12.5 |
 +------+------------------+------------------------+-----------------+
 | Sum  |     72123  100.0 |    137108  100.0  37.7 |    98699  100.0 |
 +------+------------------+------------------------+-----------------+

 +--------------------------------------------------------------------+
 |                 Partitioning CPU-Time Requirements                 |
 +--------------------------------------------------------------------+
  
 - Preparations                                       1.563E+00 seconds
 - Low-level mesh partitioning                        8.750E-01 seconds
 - Gather zone interface information                  3.440E-01 seconds
 - Global partitioning information                    6.300E-02 seconds
 - Element and face partitioning information          1.240E-01 seconds
 - Vertex partitioning information                    3.200E-02 seconds
 - Partitioning information compression               1.600E-02 seconds
 - Summed CPU-time for mesh partitioning              3.110E+00 seconds

 +--------------------------------------------------------------------+
 |                   Job Information at End of Run                    |
 +--------------------------------------------------------------------+

 +---------------------------+------+----------+----------+-----------+
 | Host                      | Mesh |     Job Finished    |    CPU    |
 |                           | Part | DD/MM/YY | hh:mm:ss |  seconds  |
 +---------------------------+------+----------+----------+-----------+
 | RD000D3A20748E            |    1 | 21/05/15 | 07:46:37 | 1.637E+01 |
 +---------------------------+------+----------+----------+-----------+

 Total wall clock time: 1.564E+01 seconds
             or: (          0:         0:         0:    15.635 )
                 (       Days:     Hours:   Minutes:   Seconds )


 +--------------------------------------------------------------------+
 |                                                                    |
 |                               Solver                               |
 |                                                                    |
 +--------------------------------------------------------------------+




 +--------------------------------------------------------------------+
 |                                                                    |
 |                    ANSYS(R) CFX(R) Solver 15.0.7                   |
 |                                                                    |
 | Version 2014.04.10-23.00-131675     Thu Apr 10 23:23:23 GMTDT 2014 |
 |                                                                    |
 |                        Executable Attributes                       |
 |                                                                    |
 |          single-64bit-int32-supfort-optimised-noprof-lcomp         |
 |                                                                    |
 | (C) 2014 ANSYS, Inc.                                               |
 |                                                                    |
 | All rights reserved. Unauthorized use, distribution or duplication |
 | is prohibited. This product is subject to U.S. laws governing      |
 | export and re-export. For full Legal Notice, see documentation.    |
 +--------------------------------------------------------------------+




 +--------------------------------------------------------------------+
 |                  Job Information at Start of Run                   |
 +--------------------------------------------------------------------+

 Run mode:       parallel run (MS MPI)

 +------------------------------+------+--------+----------+----------+
 | Host                         | Mesh |  PID   |     Job Started     |
 |                              | Part |        | DD/MM/YY | hh:mm:ss |
 +------------------------------+------+--------+----------+----------+
 | RD000D3A20748E               |    1 |   2016 | 21/05/15 | 07:46:44 |
 |                              |    2 |   1864 | 21/05/15 | 07:46:44 |
 |                              |    3 |   3908 | 21/05/15 | 07:46:44 |
 |                              |    4 |   1368 | 21/05/15 | 07:46:44 |
 |                              |    5 |    780 | 21/05/15 | 07:46:44 |
 |                              |    6 |   2896 | 21/05/15 | 07:46:44 |
 |                              |    7 |   3660 | 21/05/15 | 07:46:44 |
 |                              |    8 |   3380 | 21/05/15 | 07:46:44 |
 +------------------------------+------+--------+----------+----------+

 +--------------------------------------------------------------------+
 |                        License Information                         |
 +--------------------------------------------------------------------+
 
 License Cap:    ANSYS CFX Solver (> 512K Nodes)
 License Cap:     Parallel
 License ID:     hsrAnsysLS-SYSTEM-320-032417


 +--------------------------------------------------------------------+
 |        Memory Allocated for Run  (Actual usage may be less)        |
 +--------------------------------------------------------------------+

 Allocated storage in:    Mwords
                          Mbytes

 Partition | Real       | Integer    | Character | Logical  | Double
 ----------+------------+------------+-----------+----------+----------
   Minimum |      56.64 |      17.52 |      3.83 |     0.12 |     1.21
  (     8) |     216.07 |      66.84 |      3.65 |     0.11 |     9.22
 ----------+------------+------------+-----------+----------+----------
   Maximum |      76.50 |      20.61 |      3.83 |     0.12 |     1.21
  (     2) |     291.81 |      78.64 |      3.65 |     0.11 |     9.22
 ----------+------------+------------+-----------+----------+----------
   Average |      64.50 |      18.86 |      3.83 |     0.12 |     1.21
           |     246.05 |      71.94 |      3.65 |     0.11 |     9.22
 ----------+------------+------------+-----------+----------+----------
     Total |     515.99 |     150.88 |     30.63 |     0.96 |     9.66
           |    1968.36 |     575.56 |     29.21 |     0.92 |    73.73
 ----------+------------+------------+-----------+----------+----------


 +--------------------------------------------------------------------+
 |                  Host Memory Information (Mbytes)                  |
 +--------------------------------------------------------------------+
 |           Host         | Npart |   System    |  Allocated  |   %   |
 +------------------------+-------+-------------+-------------+-------+
 | RD000D3A20748E         |    8  |    57343.55 |     2647.77 |  4.62 |
 +------------------------+-------+-------------+-------------+-------+


 +--------------------------------------------------------------------+
 |                     ****** Notice ******                           |
 | The Wall Heat Transfer Coefficient written to the results file for |
 |   phase:     Fluid 1                                               |
 |   on domain: FluidDom                                              |
 | is based on the turbulent wall function coefficient. It is         |
 | consistent with the Wall Heat Flux, the wall temperature, and the  |
 | Wall Adjacent Temperature (near-wall temperature).  If you would   |
 | like it to be based on a user-specified bulk temperature instead,  |
 | please set the expert parameter "tbulk for htc = <value>".         |
 +--------------------------------------------------------------------+

 +--------------------------------------------------------------------+
 |                     User Defined Source Points                     |
 +--------------------------------------------------------------------+

 Domain Name : FluidDom

 Source Point: Origin

   User specified location (x,y,z):   0.000E+00,  0.000E+00,  0.000E+00
   Assigned element center (x,y,z):   1.001E-03,  4.677E-04, -1.253E-04
   Distance to specified location :   1.112E-03

 +--------------------------------------------------------------------+
 |                          Mesh Statistics                           |
 +--------------------------------------------------------------------+
 | Domain Name          | Orthog. Angle | Exp. Factor  | Aspect Ratio |
 +----------------------+---------------+--------------+--------------+
 |                      | Minimum [deg] |   Maximum    |    Maximum   |
 +----------------------+---------------+--------------+--------------+
 | FluidDom             |       45.1 ok |         7 ok |        39 OK |
 | TubeDom              |       42.4 ok |         2 OK |         3 OK |
 | Global               |       42.4 ok |         7 ok |        39 OK |
 +----------------------+---------------+--------------+--------------+
 |                      |  %!  %ok  %OK | %!  %ok  %OK | %!  %ok  %OK |
 +----------------------+---------------+--------------+--------------+
 | FluidDom             |   0    1   99 |  0    1   99 |  0    0  100 |
 | TubeDom              |   0    9   91 |  0    0  100 |  0    0  100 |
 | Global               |   0    1   99 |  0    1   99 |  0    0  100 |
 +----------------------+---------------+--------------+--------------+

 Domain Name : FluidDom

     Total Number of Nodes                                =     1063500

     Total Number of Elements                             =      969853
         Total Number of Prisms                           =        1499
         Total Number of Hexahedrons                      =      968354

     Total Number of Faces                                =      185671

 Domain Name : TubeDom

     Total Number of Nodes                                =       85356

     Total Number of Elements                             =       47720
         Total Number of Hexahedrons                      =       47720

     Total Number of Faces                                =       71690
 
 Global Statistics :

     Global Number of Nodes                               =     1148856

     Global Number of Elements                            =     1017573
         Total Number of Prisms                           =        1499
         Total Number of Hexahedrons                      =     1016074

     Global Number of Faces                               =      257361

 Domain Interface Name : Default Fluid Solid Interface

     Discretization type                                  =         GGI
     Intersection type                                    = Partitioner
     Non-overlap area fraction on side 1                  =    9.83E-02
     Non-overlap area fraction on side 2                  =    9.57E-02

 Domain Interface Name : Domain Interface 1

     Discretization type                                  =         GGI
     Intersection type                                    = Partitioner
     Non-overlap area fraction on side 1                  =    2.09E-02
     Non-overlap area fraction on side 2                  =    5.72E-02

 Domain Interface Name : SymmetrieFluid

     Discretization type                                  =         GGI
     Intersection type                                    = Partitioner
     Non-overlap area fraction on side 1                  =    3.62E-07
     Non-overlap area fraction on side 2                  =    2.98E-07

 Domain Interface Name : SymmetrieSolid

     Discretization type                                  =         1:1
     Intersection type                                    =      Direct

 +--------------------------------------------------------------------+
 |                  User Defined Monitor Information                  |
 +--------------------------------------------------------------------+

 Monitor Point: MP3_1

 Monitor Point: MP3

   Domain: FluidDom
   User specified location (x,y,z) :  2.500E+00,  2.400E-02,  0.000E+00
   Assigned vertex location (x,y,z):  2.500E+00,  2.406E-02,  4.543E-18
   Distance to specified location  :  3.392E-04
 
   Valid variables from output variable list:
                        Courant Number
                        Pressure
                        Temperature
                        Velocity

 Monitor Point: MP2

   Domain: FluidDom
   User specified location (x,y,z) :  2.500E+00,  1.200E-02,  0.000E+00
   Assigned vertex location (x,y,z):  2.500E+00,  1.203E-02,  6.017E-18
   Distance to specified location  :  3.350E-04
 
   Valid variables from output variable list:
                        Courant Number
                        Pressure
                        Temperature
                        Velocity

 Monitor Point: MP1

   Domain: FluidDom
   User specified location (x,y,z) :  2.500E+00,  0.000E+00,  0.000E+00
   Assigned vertex location (x,y,z):  2.500E+00,  4.048E-18, -2.603E-18
   Distance to specified location  :  3.335E-04
 
   Valid variables from output variable list:
                        Courant Number
                        Pressure
                        Temperature
                        Velocity

 +--------------------------------------------------------------------+
 |                   Reference Pressure Information                   |
 +--------------------------------------------------------------------+

 Domain Group: FluidDom
  
   Pressure has not been set at any boundary conditions.
   The pressure will be set to  0.00000E+00 at the following location:
   Domain      : FluidDom
   Node        :        1 (equation         1)
   Coordinates : ( 3.00000E+00, 8.66742E-03,-1.56839E-03).

 +--------------------------------------------------------------------+
 |                     Average Scale Information                      |
 +--------------------------------------------------------------------+

 Domain Name : FluidDom
     Global Length                                         = 9.0801E-02
     Minimum Extent                                        = 1.4662E-02
     Maximum Extent                                        = 3.0000E+00
     Density                                               = 1.0420E+03
     Dynamic Viscosity                                     = 8.8990E-04
     Velocity                                              = 5.0000E-02
     Advection Time                                        = 1.8160E+00
     Reynolds Number                                       = 5.3160E+03
     Thermal Conductivity                                  = 6.0690E-01
     Specific Heat Capacity at Constant Pressure           = 3.4810E+03
     Prandtl Number                                        = 5.1042E+00

 Domain Name : TubeDom
     Global Length                                         = 4.6391E-02
     Minimum Extent                                        = 8.8409E-03
     Maximum Extent                                        = 3.0000E+00
     Density                                               = 9.6000E+02
     Thermal Conductivity                                  = 3.8000E-01
     Specific Heat Capacity at Constant Pressure           = 1.9000E+03
     Thermal Diffusivity                                   = 2.0833E-07
     Average Diffusion Timescale                           = 1.0330E+04
     Minimum Diffusion Timescale                           = 3.7517E+02
     Maximum Diffusion Timescale                           = 4.3200E+07

 +--------------------------------------------------------------------+
 |                Checking for Isolated Fluid Regions                 |
 +--------------------------------------------------------------------+
 
 No isolated fluid regions were found.

 +--------------------------------------------------------------------+
 |              The Equations Solved in This Calculation              |
 +--------------------------------------------------------------------+
 
 Equations are given two labels: the individual name and a combined 
 name used for combining residuals together.  Residuals for multidomain 
 problems are combined provided the domains are connected together and 
 have the same domain type (solid or fluid/porous).  If there are 
 multiple groups of the same domain type, then the group residual is 
 identified by the name of the first domain in the connected group. 
 
 The individual and combined equation names are given below.

 Subsystem : Momentum and Mass

   U-Mom-FluidDom                            --> U-Mom
   V-Mom-FluidDom                            --> V-Mom
   W-Mom-FluidDom                            --> W-Mom
   P-Mass-FluidDom                           --> P-Mass

 Subsystem : Heat Transfer

   H-Energy-FluidDom                         --> H-Energy
   T-Energy-TubeDom                          --> T-Energy

 Subsystem : TurbKE and Diss.K

   K-TurbKE-FluidDom                         --> K-TurbKE
   E-Diss.K-FluidDom                         --> E-Diss.K
                   
 CFD Solver started: Thu May 21 07:46:54 2015


 +--------------------------------------------------------------------+
 |                       Convergence History                          |
 +--------------------------------------------------------------------+

 ======================================================================
 |                        Timescale Information                       |
 ----------------------------------------------------------------------
 |       Equation       |         Type          |      Timescale      |
 +----------------------+-----------------------+---------------------+
 | U-Mom-FluidDom       | Auto Timescale        |     5.44804E-01     |
 | V-Mom-FluidDom       | Auto Timescale        |     5.44804E-01     |
 | W-Mom-FluidDom       | Auto Timescale        |     5.44804E-01     |
 +----------------------+-----------------------+---------------------+
 | H-Energy-FluidDom    | Auto Timescale        |     5.44804E-01     |
 | T-Energy-TubeDom     | Auto Timescale        |     1.03301E+04     |
 +----------------------+-----------------------+---------------------+
 | K-TurbKE-FluidDom    | Auto Timescale        |     5.44804E-01     |
 | E-Diss.K-FluidDom    | Auto Timescale        |     5.44804E-01     |
 +----------------------+-----------------------+---------------------+

 ======================================================================
 OUTER LOOP ITERATION =    1                    CPU SECONDS = 8.608E+01
 ----------------------------------------------------------------------
 |       Equation       | Rate | RMS Res | Max Res |  Linear Solution |
 +----------------------+------+---------+---------+------------------+
 | U-Mom                | 0.00 | 2.1E-04 | 1.0E-03 |       3.3E-03  OK|
 | V-Mom                | 0.00 | 1.1E-09 | 1.1E-08 |       2.7E+01  F |
 | W-Mom                | 0.00 | 1.0E-09 | 9.5E-09 |       2.1E+01  F |
 | P-Mass               | 0.00 | 5.0E-09 | 2.2E-07 | 42.0  1.6E+01  F |
 +----------------------+------+---------+---------+------------------+
 | H-Energy             | 0.00 | 4.2E-03 | 2.5E-02 |       4.1E-02  OK|
 | T-Energy             | 0.00 | 8.5E-02 | 2.0E-01 |  5.7  4.1E-02  OK|
 +----------------------+------+---------+---------+------------------+
 | K-TurbKE             | 0.00 | 6.9E-04 | 1.4E-03 | 10.4  6.1E-02  OK|
 | E-Diss.K             | 0.00 | 1.2E-01 | 5.8E-01 | 11.5  4.5E-03  OK|
 +----------------------+------+---------+---------+------------------+

 ======================================================================
 OUTER LOOP ITERATION =    2                    CPU SECONDS = 2.249E+02
 ----------------------------------------------------------------------
 |       Equation       | Rate | RMS Res | Max Res |  Linear Solution |
 +----------------------+------+---------+---------+------------------+
 | U-Mom                | 0.70 | 1.5E-04 | 6.7E-04 |       3.8E-02  OK|
 | V-Mom                |99.99 | 6.6E-06 | 5.4E-04 |       3.2E-02  OK|
 | W-Mom                |99.99 | 2.2E-06 | 2.3E-04 |       6.8E-02  OK|
 | P-Mass               |99.99 | 1.4E-05 | 3.9E-03 | 17.4  8.6E-02  OK|
 +----------------------+------+---------+---------+------------------+
 | H-Energy             | 0.33 | 1.4E-03 | 1.7E-02 |       4.5E-02  OK|
 | T-Energy             | 0.01 | 1.1E-03 | 4.9E-03 | 10.2  4.5E-02  OK|
 +----------------------+------+---------+---------+------------------+
 | K-TurbKE             | 0.82 | 5.7E-04 | 1.4E-03 |  5.6  8.1E-02  OK|
 | E-Diss.K             | 0.04 | 4.4E-03 | 3.7E-02 | 11.6  3.1E-02  OK|
 +----------------------+------+---------+---------+------------------+

 ======================================================================
 OUTER LOOP ITERATION =    3                    CPU SECONDS = 3.285E+02
 ----------------------------------------------------------------------
 |       Equation       | Rate | RMS Res | Max Res |  Linear Solution |
 +----------------------+------+---------+---------+------------------+
 | U-Mom                | 0.76 | 1.1E-04 | 6.9E-04 |       3.1E-02  OK|
 | V-Mom                | 0.87 | 5.7E-06 | 5.1E-04 |       2.4E-02  OK|
 | W-Mom                | 0.87 | 1.9E-06 | 2.8E-04 |       5.0E-02  OK|
 | P-Mass               | 0.75 | 1.1E-05 | 1.9E-03 | 21.5  6.6E-02  OK|
 +----------------------+------+---------+---------+------------------+
 | H-Energy             | 0.43 | 5.9E-04 | 8.4E-03 |       5.0E-02  OK|
 | T-Energy             | 0.08 | 8.1E-05 | 7.5E-04 | 10.3  5.0E-02  OK|
 +----------------------+------+---------+---------+------------------+
 | K-TurbKE             | 0.96 | 5.4E-04 | 1.6E-03 | 10.2  4.6E-02  OK|
 | E-Diss.K             | 3.27 | 1.4E-02 | 9.9E-02 | 11.6  8.5E-03  OK|
 +----------------------+------+---------+---------+------------------+

 ======================================================================
 OUTER LOOP ITERATION =    4                    CPU SECONDS = 4.350E+02
 ----------------------------------------------------------------------
 |       Equation       | Rate | RMS Res | Max Res |  Linear Solution |
 +----------------------+------+---------+---------+------------------+
 | U-Mom                | 0.92 | 1.0E-04 | 6.9E-04 |       2.9E-02  OK|
 | V-Mom                | 1.06 | 6.1E-06 | 5.0E-04 |       2.0E-02  OK|
 | W-Mom                | 1.00 | 1.9E-06 | 2.4E-04 |       4.3E-02  OK|
 | P-Mass               | 0.93 | 9.8E-06 | 1.8E-03 | 21.5  5.8E-02  OK|
 +----------------------+------+---------+---------+------------------+
 | H-Energy             | 0.79 | 4.7E-04 | 4.4E-03 |       4.1E-02  OK|
 | T-Energy             | 9.59 | 7.8E-04 | 2.4E-03 | 10.3  4.1E-02  OK|
 +----------------------+------+---------+---------+------------------+
 | K-TurbKE             | 1.24 | 6.7E-04 | 3.1E-03 | 10.2  4.5E-02  OK|
 | E-Diss.K             | 1.82 | 2.6E-02 | 1.7E-01 | 11.6  6.2E-03  OK|
 +----------------------+------+---------+---------+------------------+

 ======================================================================
 OUTER LOOP ITERATION =    5                    CPU SECONDS = 5.414E+02
 ----------------------------------------------------------------------
 |       Equation       | Rate | RMS Res | Max Res |  Linear Solution |
 +----------------------+------+---------+---------+------------------+
 | U-Mom                | 0.96 | 9.9E-05 | 6.9E-04 |       4.4E-02  OK|
 | V-Mom                | 1.08 | 6.6E-06 | 5.7E-04 |       3.0E-02  OK|
 | W-Mom                | 1.06 | 2.1E-06 | 2.7E-04 |       6.7E-02  OK|
 | P-Mass               | 0.92 | 9.0E-06 | 1.6E-03 | 17.4  8.7E-02  OK|
 +----------------------+------+---------+---------+------------------+
 | H-Energy             | 0.83 | 3.9E-04 | 3.7E-03 |       3.4E-02  OK|
 | T-Energy             | 1.67 | 1.3E-03 | 4.1E-03 | 10.3  3.4E-02  OK|
 +----------------------+------+---------+---------+------------------+
 | K-TurbKE             | 1.17 | 7.8E-04 | 4.0E-03 | 10.2  3.7E-02  OK|
 | E-Diss.K             | 1.22 | 3.2E-02 | 2.0E-01 | 11.6  6.0E-03  OK|
 +----------------------+------+---------+---------+------------------+

 ======================================================================
 |                        Timescale Information                       |
 ----------------------------------------------------------------------
 |       Equation       |         Type          |      Timescale      |
 +----------------------+-----------------------+---------------------+
 | U-Mom-FluidDom       | Auto Timescale        |     5.44807E-01     |
 | V-Mom-FluidDom       | Auto Timescale        |     5.44807E-01     |
 | W-Mom-FluidDom       | Auto Timescale        |     5.44807E-01     |
 +----------------------+-----------------------+---------------------+
 | H-Energy-FluidDom    | Auto Timescale        |     5.44807E-01     |
 | T-Energy-TubeDom     | Auto Timescale        |     1.03301E+04     |
 +----------------------+-----------------------+---------------------+
 | K-TurbKE-FluidDom    | Auto Timescale        |     5.44807E-01     |
 | E-Diss.K-FluidDom    | Auto Timescale        |     5.44807E-01     |
 +----------------------+-----------------------+---------------------+

 ======================================================================
 OUTER LOOP ITERATION =    6                    CPU SECONDS = 6.453E+02
 ----------------------------------------------------------------------
 |       Equation       | Rate | RMS Res | Max Res |  Linear Solution |
 +----------------------+------+---------+---------+------------------+
 | U-Mom                | 0.97 | 9.5E-05 | 6.8E-04 |       4.1E-02  OK|
 | V-Mom                | 1.06 | 7.0E-06 | 6.5E-04 |       2.7E-02  OK|
 | W-Mom                | 1.04 | 2.2E-06 | 2.7E-04 |       6.0E-02  OK|
 | P-Mass               | 0.88 | 8.0E-06 | 1.4E-03 | 17.4  8.3E-02  OK|
 +----------------------+------+---------+---------+------------------+
 | H-Energy             | 0.88 | 3.4E-04 | 3.2E-03 |       9.7E-02  OK|
 | T-Energy             | 1.23 | 1.6E-03 | 5.0E-03 |  5.6  9.7E-02  OK|
 +----------------------+------+---------+---------+------------------+
 | K-TurbKE             | 1.08 | 8.4E-04 | 4.2E-03 | 10.2  3.1E-02  OK|
 | E-Diss.K             | 1.06 | 3.4E-02 | 2.1E-01 | 11.5  5.8E-03  OK|
 +----------------------+------+---------+---------+------------------+

 ======================================================================
 OUTER LOOP ITERATION =    7                    CPU SECONDS = 7.485E+02
 ----------------------------------------------------------------------
 |       Equation       | Rate | RMS Res | Max Res |  Linear Solution |
 +----------------------+------+---------+---------+------------------+
 | U-Mom                | 0.98 | 9.3E-05 | 6.5E-04 |       3.8E-02  OK|
 | V-Mom                | 1.04 | 7.3E-06 | 7.0E-04 |       2.4E-02  OK|
 | W-Mom                | 1.02 | 2.2E-06 | 2.8E-04 |       5.6E-02  OK|
 | P-Mass               | 0.87 | 7.0E-06 | 1.3E-03 | 17.4  8.1E-02  OK|
 +----------------------+------+---------+---------+------------------+
 | H-Energy             | 0.89 | 3.1E-04 | 2.7E-03 |       9.7E-02  OK|
 | T-Energy             | 1.08 | 1.7E-03 | 5.4E-03 |  5.6  9.7E-02  OK|
 +----------------------+------+---------+---------+------------------+
 | K-TurbKE             | 1.03 | 8.7E-04 | 4.1E-03 |  5.6  9.7E-02  OK|
 | E-Diss.K             | 0.94 | 3.2E-02 | 2.0E-01 | 11.6  5.9E-03  OK|
 +----------------------+------+---------+---------+------------------+

 ======================================================================
 OUTER LOOP ITERATION =    8                    CPU SECONDS = 8.513E+02
 ----------------------------------------------------------------------
 |       Equation       | Rate | RMS Res | Max Res |  Linear Solution |
 +----------------------+------+---------+---------+------------------+
 | U-Mom                | 0.97 | 9.0E-05 | 6.3E-04 |       3.7E-02  OK|
 | V-Mom                | 1.03 | 7.6E-06 | 7.4E-04 |       2.2E-02  OK|
 | W-Mom                | 1.02 | 2.2E-06 | 2.9E-04 |       5.3E-02  OK|
 | P-Mass               | 0.88 | 6.1E-06 | 1.1E-03 | 17.4  8.1E-02  OK|
 +----------------------+------+---------+---------+------------------+
 | H-Energy             | 0.91 | 2.8E-04 | 2.3E-03 |       9.3E-02  OK|
 | T-Energy             | 0.94 | 1.6E-03 | 5.1E-03 |  5.6  9.3E-02  OK|
 +----------------------+------+---------+---------+------------------+
 | K-TurbKE             | 0.98 | 8.5E-04 | 3.9E-03 |  5.6  9.2E-02  OK|
 | E-Diss.K             | 0.94 | 3.0E-02 | 1.9E-01 | 11.7  5.8E-03  OK|
 +----------------------+------+---------+---------+------------------+

 ======================================================================
 OUTER LOOP ITERATION =    9                    CPU SECONDS = 9.537E+02
 ----------------------------------------------------------------------
 |       Equation       | Rate | RMS Res | Max Res |  Linear Solution |
 +----------------------+------+---------+---------+------------------+
 | U-Mom                | 0.98 | 8.9E-05 | 6.0E-04 |       3.6E-02  OK|
 | V-Mom                | 1.02 | 7.7E-06 | 7.6E-04 |       2.1E-02  OK|
 | W-Mom                | 1.00 | 2.2E-06 | 2.9E-04 |       5.0E-02  OK|
 | P-Mass               | 0.90 | 5.5E-06 | 1.0E-03 | 17.4  8.1E-02  OK|
 +----------------------+------+---------+---------+------------------+
 | H-Energy             | 0.93 | 2.6E-04 | 2.1E-03 |       8.9E-02  OK|
 | T-Energy             | 0.98 | 1.6E-03 | 5.0E-03 |  5.6  8.9E-02  OK|
 +----------------------+------+---------+---------+------------------+
 | K-TurbKE             | 0.98 | 8.4E-04 | 3.7E-03 |  5.6  8.5E-02  OK|
 | E-Diss.K             | 0.94 | 2.8E-02 | 1.8E-01 | 11.7  5.7E-03  OK|
 +----------------------+------+---------+---------+------------------+

 ======================================================================
 OUTER LOOP ITERATION =   10                    CPU SECONDS = 1.057E+03
 ----------------------------------------------------------------------
 |       Equation       | Rate | RMS Res | Max Res |  Linear Solution |
 +----------------------+------+---------+---------+------------------+
 | U-Mom                | 0.98 | 8.7E-05 | 5.9E-04 |       3.4E-02  OK|
 | V-Mom                | 1.01 | 7.8E-06 | 7.6E-04 |       2.0E-02  OK|
 | W-Mom                | 1.00 | 2.2E-06 | 2.9E-04 |       4.8E-02  OK|
 | P-Mass               | 0.91 | 5.0E-06 | 9.1E-04 | 17.4  8.0E-02  OK|
 +----------------------+------+---------+---------+------------------+
 | H-Energy             | 0.93 | 2.4E-04 | 1.9E-03 |       8.6E-02  OK|
 | T-Energy             | 0.95 | 1.5E-03 | 4.8E-03 |  5.6  8.6E-02  OK|
 +----------------------+------+---------+---------+------------------+
 | K-TurbKE             | 0.97 | 8.1E-04 | 3.4E-03 |  5.6  7.7E-02  OK|
 | E-Diss.K             | 0.92 | 2.6E-02 | 1.6E-01 | 11.6  5.6E-03  OK|
 +----------------------+------+---------+---------+------------------+

 ======================================================================
 |                        Timescale Information                       |
 ----------------------------------------------------------------------
 |       Equation       |         Type          |      Timescale      |
 +----------------------+-----------------------+---------------------+
 | U-Mom-FluidDom       | Auto Timescale        |     5.44807E-01     |
 | V-Mom-FluidDom       | Auto Timescale        |     5.44807E-01     |
 | W-Mom-FluidDom       | Auto Timescale        |     5.44807E-01     |
 +----------------------+-----------------------+---------------------+
 | H-Energy-FluidDom    | Auto Timescale        |     5.44807E-01     |
 | T-Energy-TubeDom     | Auto Timescale        |     1.03301E+04     |
 +----------------------+-----------------------+---------------------+
 | K-TurbKE-FluidDom    | Auto Timescale        |     5.44807E-01     |
 | E-Diss.K-FluidDom    | Auto Timescale        |     5.44807E-01     |
 +----------------------+-----------------------+---------------------+

 ======================================================================
 OUTER LOOP ITERATION =   11                    CPU SECONDS = 1.159E+03
 ----------------------------------------------------------------------
 |       Equation       | Rate | RMS Res | Max Res |  Linear Solution |
 +----------------------+------+---------+---------+------------------+
 | U-Mom                | 0.98 | 8.5E-05 | 5.9E-04 |       3.3E-02  OK|
 | V-Mom                | 1.00 | 7.8E-06 | 7.6E-04 |       1.9E-02  OK|
 | W-Mom                | 0.99 | 2.2E-06 | 2.8E-04 |       4.7E-02  OK|
 | P-Mass               | 0.92 | 4.6E-06 | 8.4E-04 | 17.4  7.9E-02  OK|
 +----------------------+------+---------+---------+------------------+
 | H-Energy             | 0.94 | 2.3E-04 | 1.8E-03 |       8.2E-02  OK|
 | T-Energy             | 0.93 | 1.4E-03 | 4.5E-03 |  5.6  8.2E-02  OK|
 +----------------------+------+---------+---------+------------------+
 | K-TurbKE             | 0.95 | 7.7E-04 | 3.1E-03 |  5.6  7.0E-02  OK|
 | E-Diss.K             | 0.91 | 2.4E-02 | 1.5E-01 | 11.5  5.5E-03  OK|
 +----------------------+------+---------+---------+------------------+

 ======================================================================
 OUTER LOOP ITERATION =   12                    CPU SECONDS = 1.262E+03
 ----------------------------------------------------------------------
 |       Equation       | Rate | RMS Res | Max Res |  Linear Solution |
 +----------------------+------+---------+---------+------------------+
 | U-Mom                | 0.98 | 8.3E-05 | 5.9E-04 |       3.2E-02  OK|
 | V-Mom                | 0.99 | 7.7E-06 | 7.5E-04 |       1.8E-02  OK|
 | W-Mom                | 0.99 | 2.2E-06 | 2.7E-04 |       4.5E-02  OK|
 | P-Mass               | 0.92 | 4.3E-06 | 7.7E-04 | 17.4  7.7E-02  OK|
 +----------------------+------+---------+---------+------------------+
 | H-Energy             | 0.94 | 2.1E-04 | 1.6E-03 |       7.9E-02  OK|
 | T-Energy             | 0.91 | 1.3E-03 | 4.1E-03 |  5.6  7.9E-02  OK|
 +----------------------+------+---------+---------+------------------+
 | K-TurbKE             | 0.94 | 7.3E-04 | 2.8E-03 |  5.6  6.3E-02  OK|
 | E-Diss.K             | 0.90 | 2.1E-02 | 1.3E-01 | 11.5  5.4E-03  OK|
 +----------------------+------+---------+---------+------------------+

 ======================================================================
 OUTER LOOP ITERATION =   13                    CPU SECONDS = 1.364E+03
 ----------------------------------------------------------------------
 |       Equation       | Rate | RMS Res | Max Res |  Linear Solution |
 +----------------------+------+---------+---------+------------------+
 | U-Mom                | 0.97 | 8.1E-05 | 5.9E-04 |       3.1E-02  OK|
 | V-Mom                | 0.99 | 7.7E-06 | 7.3E-04 |       1.7E-02  OK|
 | W-Mom                | 0.98 | 2.2E-06 | 2.6E-04 |       4.4E-02  OK|
 | P-Mass               | 0.93 | 3.9E-06 | 7.1E-04 | 17.4  7.6E-02  OK|
 +----------------------+------+---------+---------+------------------+
 | H-Energy             | 0.94 | 2.0E-04 | 1.5E-03 |       7.5E-02  OK|
 | T-Energy             | 0.90 | 1.2E-03 | 3.7E-03 |  5.6  7.5E-02  OK|
 +----------------------+------+---------+---------+------------------+
 | K-TurbKE             | 0.94 | 6.8E-04 | 2.5E-03 |  5.6  5.8E-02  OK|
 | E-Diss.K             | 0.89 | 1.9E-02 | 1.2E-01 | 11.5  5.3E-03  OK|
 +----------------------+------+---------+---------+------------------+

 ======================================================================
 OUTER LOOP ITERATION =   14                    CPU SECONDS = 1.467E+03
 ----------------------------------------------------------------------
 |       Equation       | Rate | RMS Res | Max Res |  Linear Solution |
 +----------------------+------+---------+---------+------------------+
 | U-Mom                | 0.97 | 7.8E-05 | 5.9E-04 |       2.9E-02  OK|
 | V-Mom                | 0.98 | 7.5E-06 | 7.2E-04 |       1.6E-02  OK|
 | W-Mom                | 0.98 | 2.1E-06 | 2.5E-04 |       4.2E-02  OK|
 | P-Mass               | 0.93 | 3.7E-06 | 6.5E-04 | 17.4  7.3E-02  OK|
 +----------------------+------+---------+---------+------------------+
 | H-Energy             | 0.94 | 1.9E-04 | 1.4E-03 |       7.2E-02  OK|
 | T-Energy             | 0.89 | 1.0E-03 | 3.3E-03 |  5.6  7.2E-02  OK|
 +----------------------+------+---------+---------+------------------+
 | K-TurbKE             | 0.93 | 6.4E-04 | 2.2E-03 |  5.6  5.2E-02  OK|
 | E-Diss.K             | 0.89 | 1.7E-02 | 1.0E-01 | 11.6  5.3E-03  OK|
 +----------------------+------+---------+---------+------------------+

 ======================================================================
 OUTER LOOP ITERATION =   15                    CPU SECONDS = 1.569E+03
 ----------------------------------------------------------------------
 |       Equation       | Rate | RMS Res | Max Res |  Linear Solution |
 +----------------------+------+---------+---------+------------------+
 | U-Mom                | 0.97 | 7.6E-05 | 5.8E-04 |       2.8E-02  OK|
 | V-Mom                | 0.98 | 7.4E-06 | 7.0E-04 |       1.6E-02  OK|
 | W-Mom                | 0.97 | 2.0E-06 | 2.3E-04 |       4.1E-02  OK|
 | P-Mass               | 0.93 | 3.4E-06 | 6.0E-04 | 17.4  7.1E-02  OK|
 +----------------------+------+---------+---------+------------------+
 | H-Energy             | 0.94 | 1.8E-04 | 1.3E-03 |       6.9E-02  OK|
 | T-Energy             | 0.89 | 9.2E-04 | 3.0E-03 |  5.6  6.9E-02  OK|
 +----------------------+------+---------+---------+------------------+
 | K-TurbKE             | 0.93 | 5.9E-04 | 2.0E-03 |  5.6  4.7E-02  OK|
 | E-Diss.K             | 0.89 | 1.5E-02 | 9.2E-02 | 11.6  5.2E-03  OK|
 +----------------------+------+---------+---------+------------------+

 ======================================================================
 |                        Timescale Information                       |
 ----------------------------------------------------------------------
 |       Equation       |         Type          |      Timescale      |
 +----------------------+-----------------------+---------------------+
 | U-Mom-FluidDom       | Auto Timescale        |     5.44807E-01     |
 | V-Mom-FluidDom       | Auto Timescale        |     5.44807E-01     |
 | W-Mom-FluidDom       | Auto Timescale        |     5.44807E-01     |
 +----------------------+-----------------------+---------------------+
 | H-Energy-FluidDom    | Auto Timescale        |     5.44807E-01     |
 | T-Energy-TubeDom     | Auto Timescale        |     1.03301E+04     |
 +----------------------+-----------------------+---------------------+
 | K-TurbKE-FluidDom    | Auto Timescale        |     5.44807E-01     |
 | E-Diss.K-FluidDom    | Auto Timescale        |     5.44807E-01     |
 +----------------------+-----------------------+---------------------+

 ======================================================================
 OUTER LOOP ITERATION =   16                    CPU SECONDS = 1.672E+03
 ----------------------------------------------------------------------
 |       Equation       | Rate | RMS Res | Max Res |  Linear Solution |
 +----------------------+------+---------+---------+------------------+
 | U-Mom                | 0.96 | 7.3E-05 | 5.7E-04 |       2.7E-02  OK|
 | V-Mom                | 0.97 | 7.2E-06 | 6.8E-04 |       1.5E-02  OK|
 | W-Mom                | 0.97 | 2.0E-06 | 2.2E-04 |       3.9E-02  OK|
 | P-Mass               | 0.93 | 3.2E-06 | 5.5E-04 | 17.4  6.8E-02  OK|
 +----------------------+------+---------+---------+------------------+
 | H-Energy             | 0.94 | 1.7E-04 | 1.3E-03 |       6.5E-02  OK|
 | T-Energy             | 0.88 | 8.1E-04 | 2.6E-03 |  5.6  6.5E-02  OK|
 +----------------------+------+---------+---------+------------------+
 | K-TurbKE             | 0.93 | 5.5E-04 | 1.8E-03 |  5.6  4.4E-02  OK|
 | E-Diss.K             | 0.88 | 1.3E-02 | 8.2E-02 | 11.6  5.1E-03  OK|
 +----------------------+------+---------+---------+------------------+

 ======================================================================
 OUTER LOOP ITERATION =   17                    CPU SECONDS = 1.775E+03
 ----------------------------------------------------------------------
 |       Equation       | Rate | RMS Res | Max Res |  Linear Solution |
 +----------------------+------+---------+---------+------------------+
 | U-Mom                | 0.96 | 7.0E-05 | 5.6E-04 |       2.6E-02  OK|
 | V-Mom                | 0.97 | 7.0E-06 | 6.6E-04 |       1.4E-02  OK|
 | W-Mom                | 0.96 | 1.9E-06 | 2.0E-04 |       3.8E-02  OK|
 | P-Mass               | 0.93 | 2.9E-06 | 5.0E-04 | 17.4  6.5E-02  OK|
 +----------------------+------+---------+---------+------------------+
 | H-Energy             | 0.94 | 1.6E-04 | 1.2E-03 |       6.2E-02  OK|
 | T-Energy             | 0.88 | 7.1E-04 | 2.3E-03 |  5.6  6.2E-02  OK|
 +----------------------+------+---------+---------+------------------+
 | K-TurbKE             | 0.93 | 5.2E-04 | 1.6E-03 |  5.6  4.1E-02  OK|
 | E-Diss.K             | 0.88 | 1.2E-02 | 7.3E-02 | 11.6  5.0E-03  OK|
 +----------------------+------+---------+---------+------------------+

 ======================================================================
 OUTER LOOP ITERATION =   18                    CPU SECONDS = 1.878E+03
 ----------------------------------------------------------------------
 |       Equation       | Rate | RMS Res | Max Res |  Linear Solution |
 +----------------------+------+---------+---------+------------------+
 | U-Mom                | 0.95 | 6.7E-05 | 5.5E-04 |       2.5E-02  OK|
 | V-Mom                | 0.96 | 6.7E-06 | 6.3E-04 |       1.4E-02  OK|
 | W-Mom                | 0.96 | 1.8E-06 | 1.8E-04 |       3.7E-02  OK|
 | P-Mass               | 0.93 | 2.7E-06 | 4.5E-04 | 17.4  6.2E-02  OK|
 +----------------------+------+---------+---------+------------------+
 | H-Energy             | 0.94 | 1.5E-04 | 1.1E-03 |       5.9E-02  OK|
 | T-Energy             | 0.88 | 6.3E-04 | 2.1E-03 |  5.6  5.9E-02  OK|
 +----------------------+------+---------+---------+------------------+
 | K-TurbKE             | 0.94 | 4.8E-04 | 1.5E-03 |  5.6  3.8E-02  OK|
 | E-Diss.K             | 0.88 | 1.0E-02 | 6.7E-02 | 11.6  4.9E-03  OK|
 +----------------------+------+---------+---------+------------------+

 ======================================================================
 OUTER LOOP ITERATION =   19                    CPU SECONDS = 1.980E+03
 ----------------------------------------------------------------------
 |       Equation       | Rate | RMS Res | Max Res |  Linear Solution |
 +----------------------+------+---------+---------+------------------+
 | U-Mom                | 0.95 | 6.3E-05 | 5.3E-04 |       2.3E-02  OK|
 | V-Mom                | 0.96 | 6.4E-06 | 6.1E-04 |       1.3E-02  OK|
 | W-Mom                | 0.96 | 1.7E-06 | 1.7E-04 |       3.5E-02  OK|
 | P-Mass               | 0.93 | 2.5E-06 | 4.1E-04 | 17.4  5.9E-02  OK|
 +----------------------+------+---------+---------+------------------+
 | H-Energy             | 0.94 | 1.4E-04 | 1.0E-03 |       5.6E-02  OK|
 | T-Energy             | 0.88 | 5.5E-04 | 1.9E-03 |  5.6  5.6E-02  OK|
 +----------------------+------+---------+---------+------------------+
 | K-TurbKE             | 0.94 | 4.5E-04 | 1.4E-03 |  5.6  3.7E-02  OK|
 | E-Diss.K             | 0.89 | 9.2E-03 | 6.2E-02 | 11.5  4.8E-03  OK|
 +----------------------+------+---------+---------+------------------+

 ======================================================================
 OUTER LOOP ITERATION =   20                    CPU SECONDS = 2.083E+03
 ----------------------------------------------------------------------
 |       Equation       | Rate | RMS Res | Max Res |  Linear Solution |
 +----------------------+------+---------+---------+------------------+
 | U-Mom                | 0.94 | 6.0E-05 | 5.2E-04 |       2.2E-02  OK|
 | V-Mom                | 0.96 | 6.2E-06 | 5.8E-04 |       1.3E-02  OK|
 | W-Mom                | 0.95 | 1.7E-06 | 1.6E-04 |       3.4E-02  OK|
 | P-Mass               | 0.93 | 2.3E-06 | 3.7E-04 | 17.4  5.7E-02  OK|
 +----------------------+------+---------+---------+------------------+
 | H-Energy             | 0.94 | 1.3E-04 | 9.9E-04 |       5.3E-02  OK|
 | T-Energy             | 0.89 | 4.9E-04 | 1.7E-03 |  5.6  5.3E-02  OK|
 +----------------------+------+---------+---------+------------------+
 | K-TurbKE             | 0.94 | 4.3E-04 | 1.2E-03 |  5.6  3.7E-02  OK|
 | E-Diss.K             | 0.89 | 8.2E-03 | 5.7E-02 | 11.5  4.8E-03  OK|
 +----------------------+------+---------+---------+------------------+

 ======================================================================
 |                        Timescale Information                       |
 ----------------------------------------------------------------------
 |       Equation       |         Type          |      Timescale      |
 +----------------------+-----------------------+---------------------+
 | U-Mom-FluidDom       | Auto Timescale        |     5.44807E-01     |
 | V-Mom-FluidDom       | Auto Timescale        |     5.44807E-01     |
 | W-Mom-FluidDom       | Auto Timescale        |     5.44807E-01     |
 +----------------------+-----------------------+---------------------+
 | H-Energy-FluidDom    | Auto Timescale        |     5.44807E-01     |
 | T-Energy-TubeDom     | Auto Timescale        |     1.03301E+04     |
 +----------------------+-----------------------+---------------------+
 | K-TurbKE-FluidDom    | Auto Timescale        |     5.44807E-01     |
 | E-Diss.K-FluidDom    | Auto Timescale        |     5.44807E-01     |
 +----------------------+-----------------------+---------------------+

 ======================================================================
 OUTER LOOP ITERATION =   21                    CPU SECONDS = 2.185E+03
 ----------------------------------------------------------------------
 |       Equation       | Rate | RMS Res | Max Res |  Linear Solution |
 +----------------------+------+---------+---------+------------------+
 | U-Mom                | 0.94 | 5.6E-05 | 5.0E-04 |       2.1E-02  OK|
 | V-Mom                | 0.95 | 5.9E-06 | 5.5E-04 |       1.2E-02  OK|
 | W-Mom                | 0.95 | 1.6E-06 | 1.5E-04 |       3.3E-02  OK|
 | P-Mass               | 0.93 | 2.2E-06 | 3.3E-04 | 17.4  5.4E-02  OK|
 +----------------------+------+---------+---------+------------------+
 | H-Energy             | 0.94 | 1.2E-04 | 9.3E-04 |       5.0E-02  OK|
 | T-Energy             | 0.89 | 4.4E-04 | 1.5E-03 |  5.6  5.0E-02  OK|
 +----------------------+------+---------+---------+------------------+
 | K-TurbKE             | 0.94 | 4.0E-04 | 1.1E-03 |  5.6  3.8E-02  OK|
 | E-Diss.K             | 0.89 | 7.3E-03 | 5.3E-02 | 11.5  4.7E-03  OK|
 +----------------------+------+---------+---------+------------------+

 ======================================================================
 OUTER LOOP ITERATION =   22                    CPU SECONDS = 2.288E+03
 ----------------------------------------------------------------------
 |       Equation       | Rate | RMS Res | Max Res |  Linear Solution |
 +----------------------+------+---------+---------+------------------+
 | U-Mom                | 0.94 | 5.3E-05 | 4.8E-04 |       3.6E-02  OK|
 | V-Mom                | 0.95 | 5.6E-06 | 5.2E-04 |       2.7E-02  OK|
 | W-Mom                | 0.94 | 1.5E-06 | 1.4E-04 |       5.9E-02  OK|
 | P-Mass               | 0.93 | 2.0E-06 | 3.0E-04 | 13.3  9.7E-02  OK|
 +----------------------+------+---------+---------+------------------+
 | H-Energy             | 0.94 | 1.2E-04 | 8.8E-04 |       4.7E-02  OK|
 | T-Energy             | 0.89 | 3.9E-04 | 1.3E-03 |  5.6  4.7E-02  OK|
 +----------------------+------+---------+---------+------------------+
 | K-TurbKE             | 0.94 | 3.8E-04 | 1.0E-03 |  5.6  4.0E-02  OK|
 | E-Diss.K             | 0.88 | 6.5E-03 | 4.8E-02 | 11.6  4.7E-03  OK|
 +----------------------+------+---------+---------+------------------+

 ======================================================================
 OUTER LOOP ITERATION =   23                    CPU SECONDS = 2.388E+03
 ----------------------------------------------------------------------
 |       Equation       | Rate | RMS Res | Max Res |  Linear Solution |
 +----------------------+------+---------+---------+------------------+
 | U-Mom                | 0.93 | 4.9E-05 | 4.6E-04 |       3.6E-02  OK|
 | V-Mom                | 0.94 | 5.3E-06 | 4.9E-04 |       2.6E-02  OK|
 | W-Mom                | 0.94 | 1.4E-06 | 1.3E-04 |       5.6E-02  OK|
 | P-Mass               | 0.93 | 1.9E-06 | 2.8E-04 | 13.3  9.7E-02  OK|
 +----------------------+------+---------+---------+------------------+
 | H-Energy             | 0.94 | 1.1E-04 | 8.3E-04 |       4.5E-02  OK|
 | T-Energy             | 0.88 | 3.4E-04 | 1.2E-03 |  5.6  4.5E-02  OK|
 +----------------------+------+---------+---------+------------------+
 | K-TurbKE             | 0.95 | 3.6E-04 | 9.2E-04 |  5.6  4.1E-02  OK|
 | E-Diss.K             | 0.89 | 5.8E-03 | 4.4E-02 | 11.6  4.6E-03  OK|
 +----------------------+------+---------+---------+------------------+

 ======================================================================
 OUTER LOOP ITERATION =   24                    CPU SECONDS = 2.489E+03
 ----------------------------------------------------------------------
 |       Equation       | Rate | RMS Res | Max Res |  Linear Solution |
 +----------------------+------+---------+---------+------------------+
 | U-Mom                | 0.93 | 4.5E-05 | 4.4E-04 |       3.5E-02  OK|
 | V-Mom                | 0.94 | 5.0E-06 | 4.6E-04 |       2.6E-02  OK|
 | W-Mom                | 0.94 | 1.3E-06 | 1.2E-04 |       5.5E-02  OK|
 | P-Mass               | 0.93 | 1.7E-06 | 2.5E-04 | 13.3  9.5E-02  OK|
 +----------------------+------+---------+---------+------------------+
 | H-Energy             | 0.94 | 1.0E-04 | 7.8E-04 |       4.3E-02  OK|
 | T-Energy             | 0.89 | 3.1E-04 | 1.1E-03 |  5.6  4.3E-02  OK|
 +----------------------+------+---------+---------+------------------+
 | K-TurbKE             | 0.95 | 3.4E-04 | 8.5E-04 |  5.6  4.3E-02  OK|
 | E-Diss.K             | 0.90 | 5.2E-03 | 4.1E-02 | 11.6  4.6E-03  OK|
 +----------------------+------+---------+---------+------------------+

 ======================================================================
 OUTER LOOP ITERATION =   25                    CPU SECONDS = 2.589E+03
 ----------------------------------------------------------------------
 |       Equation       | Rate | RMS Res | Max Res |  Linear Solution |
 +----------------------+------+---------+---------+------------------+
 | U-Mom                | 0.92 | 4.2E-05 | 4.2E-04 |       3.4E-02  OK|
 | V-Mom                | 0.94 | 4.7E-06 | 4.3E-04 |       2.5E-02  OK|
 | W-Mom                | 0.93 | 1.2E-06 | 1.1E-04 |       5.4E-02  OK|
 | P-Mass               | 0.93 | 1.6E-06 | 2.2E-04 | 13.3  9.2E-02  OK|
 +----------------------+------+---------+---------+------------------+
 | H-Energy             | 0.93 | 9.5E-05 | 7.4E-04 |       4.1E-02  OK|
 | T-Energy             | 0.91 | 2.8E-04 | 9.8E-04 |  5.6  4.1E-02  OK|
 +----------------------+------+---------+---------+------------------+
 | K-TurbKE             | 0.95 | 3.3E-04 | 7.9E-04 |  5.6  4.4E-02  OK|
 | E-Diss.K             | 0.91 | 4.7E-03 | 3.8E-02 | 11.5  4.5E-03  OK|
 +----------------------+------+---------+---------+------------------+

 ======================================================================
 |                        Timescale Information                       |
 ----------------------------------------------------------------------
 |       Equation       |         Type          |      Timescale      |
 +----------------------+-----------------------+---------------------+
 | U-Mom-FluidDom       | Auto Timescale        |     5.44807E-01     |
 | V-Mom-FluidDom       | Auto Timescale        |     5.44807E-01     |
 | W-Mom-FluidDom       | Auto Timescale        |     5.44807E-01     |
 +----------------------+-----------------------+---------------------+
 | H-Energy-FluidDom    | Auto Timescale        |     5.44807E-01     |
 | T-Energy-TubeDom     | Auto Timescale        |     1.03301E+04     |
 +----------------------+-----------------------+---------------------+
 | K-TurbKE-FluidDom    | Auto Timescale        |     5.44807E-01     |
 | E-Diss.K-FluidDom    | Auto Timescale        |     5.44807E-01     |
 +----------------------+-----------------------+---------------------+

 ======================================================================
 OUTER LOOP ITERATION =   26                    CPU SECONDS = 2.689E+03
 ----------------------------------------------------------------------
 |       Equation       | Rate | RMS Res | Max Res |  Linear Solution |
 +----------------------+------+---------+---------+------------------+
 | U-Mom                | 0.92 | 3.8E-05 | 4.0E-04 |       3.4E-02  OK|
 | V-Mom                | 0.93 | 4.3E-06 | 4.1E-04 |       2.5E-02  OK|
 | W-Mom                | 0.93 | 1.1E-06 | 9.7E-05 |       5.3E-02  OK|
 | P-Mass               | 0.93 | 1.5E-06 | 2.0E-04 | 13.3  8.9E-02  OK|
 +----------------------+------+---------+---------+------------------+
 | H-Energy             | 0.93 | 8.8E-05 | 7.0E-04 |       3.9E-02  OK|
 | T-Energy             | 0.91 | 2.5E-04 | 9.0E-04 |  5.6  3.9E-02  OK|
 +----------------------+------+---------+---------+------------------+
 | K-TurbKE             | 0.96 | 3.1E-04 | 7.4E-04 |  5.6  4.5E-02  OK|
 | E-Diss.K             | 0.91 | 4.3E-03 | 3.6E-02 | 11.5  4.4E-03  OK|
 +----------------------+------+---------+---------+------------------+

 ======================================================================
[...]

 ======================================================================
 OUTER LOOP ITERATION =  199                    CPU SECONDS = 1.960E+04
 ----------------------------------------------------------------------
 |       Equation       | Rate | RMS Res | Max Res |  Linear Solution |
 +----------------------+------+---------+---------+------------------+
 | U-Mom                | 1.00 | 3.2E-08 | 6.2E-07 |       1.7E-02  OK|
 | V-Mom                | 1.00 | 1.8E-08 | 3.0E-07 |       2.6E-02  OK|
 | W-Mom                | 1.02 | 2.3E-08 | 4.3E-07 |       2.2E-02  OK|
 | P-Mass               | 1.01 | 1.7E-08 | 2.8E-07 |  5.1  1.4E-02  OK|
 +----------------------+------+---------+---------+------------------+
 | H-Energy             | 1.00 | 5.8E-08 | 1.8E-06 |       2.1E-03  OK|
 | T-Energy             | 1.01 | 1.1E-06 | 1.0E-05 |  5.6  2.1E-03  OK|
 +----------------------+------+---------+---------+------------------+
 | K-TurbKE             | 1.00 | 2.9E-08 | 7.3E-07 |  5.6  8.8E-03  OK|
 | E-Diss.K             | 0.99 | 4.9E-08 | 1.1E-06 | 11.5  1.3E-03  OK|
 +----------------------+------+---------+---------+------------------+

 ======================================================================
 OUTER LOOP ITERATION =  200                    CPU SECONDS = 1.969E+04
 ----------------------------------------------------------------------
 |       Equation       | Rate | RMS Res | Max Res |  Linear Solution |
 +----------------------+------+---------+---------+------------------+
 | U-Mom                | 1.00 | 3.2E-08 | 7.3E-07 |       1.7E-02  OK|
 | V-Mom                | 1.00 | 1.8E-08 | 2.8E-07 |       2.6E-02  OK|
 | W-Mom                | 1.00 | 2.3E-08 | 4.0E-07 |       2.2E-02  OK|
 | P-Mass               | 1.00 | 1.7E-08 | 2.4E-07 |  5.1  1.4E-02  OK|
 +----------------------+------+---------+---------+------------------+
 | H-Energy             | 1.00 | 5.8E-08 | 1.8E-06 |       2.1E-03  OK|
 | T-Energy             | 1.01 | 1.1E-06 | 9.3E-06 |  5.6  2.1E-03  OK|
 +----------------------+------+---------+---------+------------------+
 | K-TurbKE             | 1.00 | 2.9E-08 | 7.4E-07 |  5.6  8.7E-03  OK|
 | E-Diss.K             | 1.02 | 5.0E-08 | 1.1E-06 | 11.5  1.5E-03  OK|
 +----------------------+------+---------+---------+------------------+
                   
 CFD Solver finished: Thu May 21 08:27:56 2015
 CFD Solver wall clock seconds: 2.4627E+03

 ======================================================================
              Termination and Interrupt Condition Summary
 ======================================================================
    
 CFD Solver: Run duration reached
   (Maximum number of outer iterations)

 ======================================================================
              Boundary Flow and Total Source Term Summary
 ======================================================================

 +--------------------------------------------------------------------+
 |                           U-Mom-FluidDom                           |
 +--------------------------------------------------------------------+
 Boundary         : Default Fluid Solid Interface Side 1   -7.8348E-04
 Boundary         : Inlet                                   1.3096E-03
 Boundary         : Outlet                                 -5.2610E-04
 Domain Interface : SymmetrieFluid (Side 1)                -1.2235E-02
 Domain Interface : SymmetrieFluid (Side 2)                 1.2235E-02
                                                           -----------
 Domain Imbalance :                                        -8.3819E-09

 +--------------------------------------------------------------------+
 |                           V-Mom-FluidDom                           |
 +--------------------------------------------------------------------+
 Boundary         : Default Fluid Solid Interface Side 1   -4.5907E-02
 Boundary         : Inlet                                   9.4045E-09
 Boundary         : Outlet                                 -8.5054E-05
 Domain Interface : SymmetrieFluid (Side 1)                 4.0679E-02
 Domain Interface : SymmetrieFluid (Side 2)                 5.3133E-03
                                                           -----------
 Domain Imbalance :                                        -6.5193E-09

 +--------------------------------------------------------------------+
 |                           W-Mom-FluidDom                           |
 +--------------------------------------------------------------------+
 Boundary         : Default Fluid Solid Interface Side 1    1.2301E-02
 Boundary         : Inlet                                  -2.5339E-09
 Boundary         : Outlet                                  2.2851E-05
 Domain Interface : SymmetrieFluid (Side 1)                 7.0458E-02
 Domain Interface : SymmetrieFluid (Side 2)                -8.2782E-02
                                                           -----------
 Domain Imbalance :                                         7.4506E-09

 +--------------------------------------------------------------------+
 |                          P-Mass-FluidDom                           |
 +--------------------------------------------------------------------+
 Boundary         : Inlet                                   1.3001E-02
 Boundary         : Outlet                                 -1.3001E-02
 Domain Interface : SymmetrieFluid (Side 1)                -6.0449E-05
 Domain Interface : SymmetrieFluid (Side 2)                 6.0450E-05
                                                           -----------
 Domain Imbalance :                                         2.0042E-08

 +--------------------------------------------------------------------+
 |                         H-Energy-FluidDom                          |
 +--------------------------------------------------------------------+
 Boundary         : Outlet                                 -3.0699E+01
 Domain Interface : Default Fluid Solid Interface (Side 1)  3.0699E+01
 Domain Interface : SymmetrieFluid (Side 1)                -3.1095E+01
 Domain Interface : SymmetrieFluid (Side 2)                 3.1095E+01
                                                           -----------
 Domain Imbalance :                                        -3.8147E-06

 +--------------------------------------------------------------------+
 |                          T-Energy-TubeDom                          |
 +--------------------------------------------------------------------+
 Boundary         : TubeOuterWallHeatex                     3.0699E+01
 Domain Interface : Default Fluid Solid Interface (Side 2) -3.0699E+01
 Domain Interface : Domain Interface 1 (Side 1)             2.2880E-02
 Domain Interface : Domain Interface 1 (Side 2)            -2.2880E-02
                                                           -----------
 Domain Imbalance :                                         9.3132E-09


 +--------------------------------------------------------------------+
 |                     Normalised Imbalance Summary                   |
 +--------------------------------------------------------------------+
 |       Equation       |      Maximum Flow     |     Imbalance (%)   |
 +--------------------------------------------------------------------+
 | U-Mom-FluidDom       |       8.2782E-02      |        0.0000       |
 | V-Mom-FluidDom       |       8.2782E-02      |        0.0000       |
 | W-Mom-FluidDom       |       8.2782E-02      |        0.0000       |
 | P-Mass-FluidDom      |       1.3001E-02      |        0.0002       |
 +----------------------+-----------------------+---------------------+
 | H-Energy-FluidDom    |       3.1095E+01      |        0.0000       |
 | T-Energy-TubeDom     |       3.1095E+01      |        0.0000       |
 +----------------------+-----------------------+---------------------+

 ======================================================================
                     Wall Force and Moment Summary
 ======================================================================
                                                                          
 Notes:
 1. Pressure integrals exclude the reference pressure.  To include
    it, set the expert parameter 'include pref in forces = t'.


 +--------------------------------------------------------------------+
 |                      Pressure Force On Walls                       |
 +--------------------------------------------------------------------+
                                    X-Comp.      Y-Comp.      Z-Comp.

 Domain Group: FluidDom

 Default Fluid Solid Interface Si-9.9763E-24   4.5907E-02  -1.2301E-02
                                  -----------  -----------  -----------
 Domain Group Totals :           -9.9763E-24   4.5907E-02  -1.2301E-02


 +--------------------------------------------------------------------+
 |                       Viscous Force On Walls                       |
 +--------------------------------------------------------------------+
                                    X-Comp.      Y-Comp.      Z-Comp.

 Domain Group: FluidDom

 Default Fluid Solid Interface Si 7.8348E-04   3.4149E-08  -1.1228E-08
                                  -----------  -----------  -----------
 Domain Group Totals :            7.8348E-04   3.4149E-08  -1.1228E-08


 +--------------------------------------------------------------------+
 |                      Pressure Moment On Walls                      |
 +--------------------------------------------------------------------+
                                    X-Comp.      Y-Comp.      Z-Comp.

 Domain Group: FluidDom

 Default Fluid Solid Interface Si-1.3671E-10   9.0070E-03   3.3615E-02
                                  -----------  -----------  -----------
 Domain Group Totals :           -1.3671E-10   9.0070E-03   3.3615E-02


 +--------------------------------------------------------------------+
 |                       Viscous Moment On Walls                      |
 +--------------------------------------------------------------------+
                                    X-Comp.      Y-Comp.      Z-Comp.

 Domain Group: FluidDom

 Default Fluid Solid Interface Si-6.1115E-11  -6.1120E-06  -2.2834E-05
                                  -----------  -----------  -----------
 Domain Group Totals :           -6.1115E-11  -6.1120E-06  -2.2834E-05


 +--------------------------------------------------------------------+
 |                   Locations of Maximum Residuals                   |
 +--------------------------------------------------------------------+
 |       Equation       |      Domain Name      |     Node Number     |
 +--------------------------------------------------------------------+
 | U-Mom                | FluidDom              |         945765      |
 | V-Mom                | FluidDom              |        1063454      |
 | W-Mom                | FluidDom              |         930033      |
 | P-Mass               | FluidDom              |         982352      |
 +----------------------+-----------------------+---------------------+
 | H-Energy             | FluidDom              |         964432      |
 | T-Energy             | TubeDom               |          31550      |
 +----------------------+-----------------------+---------------------+
 | K-TurbKE             | FluidDom              |         945969      |
 | E-Diss.K             | FluidDom              |         997389      |
 +----------------------+-----------------------+---------------------+

 ======================================================================
 |                     False Transient Information                    |
 +--------------------------------------------------------------------+
 |       Equation       |         Type          | Elapsed Pseudo-Time |
 +--------------------------------------------------------------------+
 | U-Mom-FluidDom       | Auto Timescale        |     1.08961E+02     |
 | V-Mom-FluidDom       | Auto Timescale        |     1.08961E+02     |
 | W-Mom-FluidDom       | Auto Timescale        |     1.08961E+02     |
 +----------------------+-----------------------+---------------------+
 | H-Energy-FluidDom    | Auto Timescale        |     1.08961E+02     |
 | T-Energy-TubeDom     | Auto Timescale        |     2.06603E+06     |
 +----------------------+-----------------------+---------------------+
 | K-TurbKE-FluidDom    | Auto Timescale        |     1.08961E+02     |
 | E-Diss.K-FluidDom    | Auto Timescale        |     1.08961E+02     |
 +----------------------+-----------------------+---------------------+

 +--------------------------------------------------------------------+
 |                     Average Scale Information                      |
 +--------------------------------------------------------------------+

 Domain Name : FluidDom
     Global Length                                         = 9.0801E-02
     Minimum Extent                                        = 1.4662E-02
     Maximum Extent                                        = 3.0000E+00
     Density                                               = 1.0420E+03
     Dynamic Viscosity                                     = 8.8990E-04
     Velocity                                              = 4.7141E-02
     Advection Time                                        = 1.9262E+00
     Reynolds Number                                       = 5.0120E+03
     Thermal Conductivity                                  = 6.0690E-01
     Specific Heat Capacity at Constant Pressure           = 3.4810E+03
     Prandtl Number                                        = 5.1042E+00
     Temperature Range                                     = 1.5287E+00

 Domain Name : TubeDom
     Global Length                                         = 4.6391E-02
     Minimum Extent                                        = 8.8409E-03
     Maximum Extent                                        = 3.0000E+00
     Density                                               = 9.6000E+02
     Thermal Conductivity                                  = 3.8000E-01
     Specific Heat Capacity at Constant Pressure           = 1.9000E+03
     Thermal Diffusivity                                   = 2.0833E-07
     Average Diffusion Timescale                           = 1.0330E+04
     Minimum Diffusion Timescale                           = 3.7517E+02
     Maximum Diffusion Timescale                           = 4.3200E+07
     Temperature Range                                     = 1.0041E+01

 +--------------------------------------------------------------------+
 |                     Variable Range Information                     |
 +--------------------------------------------------------------------+

 Domain Name : FluidDom
 +--------------------------------------------------------------------+
 |      Variable Name                         |    min    |    max    |
 +--------------------------------------------------------------------+
 | Density                                    |  1.04E+03 |  1.04E+03 |
 | Specific Heat Capacity at Constant Pressure|  3.48E+03 |  3.48E+03 |
 | Dynamic Viscosity                          |  8.90E-04 |  8.90E-04 |
 | Thermal Conductivity                       |  6.07E-01 |  6.07E-01 |
 | Static Entropy                             |  0.00E+00 |  1.94E+01 |
 | Velocity u                                 |  2.86E-02 |  6.29E-02 |
 | Velocity v                                 | -2.27E-04 |  8.61E-03 |
 | Velocity w                                 | -4.98E-03 |  3.04E-03 |
 | Pressure                                   | -1.31E+00 |  2.67E+00 |
 | Turbulence Kinetic Energy                  |  5.39E-06 |  4.54E-05 |
 | Turbulence Eddy Dissipation                |  3.37E-07 |  4.79E-05 |
 | Eddy Viscosity                             |  4.04E-03 |  1.61E-02 |
 | Temperature                                |  2.73E+02 |  2.75E+02 |
 | Static Enthalpy                            | -1.09E-02 |  5.32E+03 |
 +--------------------------------------------------------------------+

 Domain Name : TubeDom
 +--------------------------------------------------------------------+
 |      Variable Name                         |    min    |    max    |
 +--------------------------------------------------------------------+
 | Density                                    |  9.60E+02 |  9.60E+02 |
 | Specific Heat Capacity at Constant Pressure|  1.90E+03 |  1.90E+03 |
 | Thermal Conductivity                       |  3.80E-01 |  3.80E-01 |
 | Static Entropy                             | -1.66E+02 | -9.78E+01 |
 | Temperature                                |  2.73E+02 |  2.83E+02 |
 | Static Enthalpy                            | -4.75E+04 | -2.84E+04 |
 +--------------------------------------------------------------------+

 +--------------------------------------------------------------------+
 |           CPU Requirements of Numerical Solution - Total           |
 +--------------------------------------------------------------------+

 Subsystem Name                  Discretization       Linear Solution
                                (secs.   %total)     (secs.   %total) 
 ----------------------------------------------------------------------
 Momentum and Mass              8.17E+03  41.2 %     1.37E+03   6.9 %
 Heat Transfer                  2.69E+03  13.6 %     6.50E+02   3.3 %
 TurbKE and Diss.K              2.68E+03  13.5 %     1.13E+03   5.7 %
                                -------- -------     --------  ------
 Subsystem Summary              1.35E+04  68.3 %     3.15E+03  15.9 %

 Variable Updates               1.27E+03    6.4 %
 GGI Intersection               6.22E-01    0.0 %
 Search Calculations            1.41E+00    0.0 %
 File Reading                   8.17E+00    0.0 %
 File Writing                   1.82E+01    0.1 %
 Miscellaneous                  1.85E+03    9.3 %
                                --------
 Total                          1.98E+04

 +--------------------------------------------------------------------+
 |                   Job Information at End of Run                    |
 +--------------------------------------------------------------------+

 +---------------------------+------+----------+----------+-----------+
 | Host                      | Mesh |     Job Finished    |    CPU    |
 |                           | Part | DD/MM/YY | hh:mm:ss |  seconds  |
 +---------------------------+------+----------+----------+-----------+
 | RD000D3A20748E            |    1 | 21/05/15 | 08:28:02 | 2.479E+03 |
 |                           |    2 | 21/05/15 | 08:28:02 | 2.479E+03 |
 |                           |    3 | 21/05/15 | 08:28:02 | 2.479E+03 |
 |                           |    4 | 21/05/15 | 08:28:02 | 2.479E+03 |
 |                           |    5 | 21/05/15 | 08:28:02 | 2.479E+03 |
 |                           |    6 | 21/05/15 | 08:28:02 | 2.479E+03 |
 |                           |    7 | 21/05/15 | 08:28:02 | 2.479E+03 |
 |                           |    8 | 21/05/15 | 08:28:02 | 2.479E+03 |
 +---------------------------+------+----------+----------+-----------+

 Total wall clock time: 2.478E+03 seconds
             or: (          0:         0:        41:    18.353 )
                 (       Days:     Hours:   Minutes:   Seconds )



 --> Final synchronization point reached by all partitions.
End of solution stage.

 +--------------------------------------------------------------------+
 | The results from this run of the ANSYS CFX Solver have been        |
 | written to                                                         |
 | \\10.10.13.13\C\Resources\directory\ac06609b2c804792bc1dc56b4bbdc- |
 | 10d.HSR.AzureEE.HpcWorkerRole.jobdata\job-4\pipe06_001.res         |
 +--------------------------------------------------------------------+


This run of the ANSYS CFX Solver has finished.
