 This run of the CFX-15.0.7 Solver started at 11:27:06 on 21 May 2015 by
 user MpiUser on RD000D3A212C01 (intel_xeon64.sse2_winnt) using the
 command:
 
  "\\hsransys.file.core.windows.net\main\apps\ANSYS Inc\v150\CFX\bin\perllib\cfx5solve.pl"
    -def pipe01.def -chdir
    \\10.10.13.6\C\Resources\directory\1399551deb254def824362b9986f8f88.HSR.AzureEE.HpcWorkerRole.jobdata\job-1
    -start-method MSMPI2 -part 16
 
 Point Releases and Patches installed:
 
  ANSYS, Inc. Products 15.0.7
  ANSYS Mechanical Products 15.0.7
  ANSYS Autodyn 15.0.7
  ANSYS LS-DYNA 15.0.7
  ANSYS CFX (includes ANSYS CFD-Post) 15.0.7
  ANSYS Fluent (includes ANSYS CFD-Post) 15.0.7
  ANSYS TurboGrid 15.0.7
  ANSYS Polyflow (includes ANSYS CFD-Post) 15.0.7
  ANSYS Aqwa 15.0.7
  ANSYS ICEM CFD 15.0.7
  ANSYS Icepak (includes ANSYS CFD-Post) 15.0.7
  Catia, Version 6 15.0.7
  ANSYS, Inc. License Manager 15.0.7
 
 Setting up CFX Solver run ...
 

 +--------------------------------------------------------------------+
 |                              Warning!                              |
 |                                                                    |
 | The working directory is a UNC path, but the Windows command shell |
 | is currently not configured to support UNC paths. This may cause   |
 | failure of the CFX Solver.                                         |
 |                                                                    |
 | Command shell support for UNC paths can be enabled by setting the  |
 | Windows registry key DisableUNCCheck.                              |
 +--------------------------------------------------------------------+


 +--------------------------------------------------------------------+
 |                                                                    |
 |                    CFX Command Language Upgrade                    |
 |                                                                    |
 +--------------------------------------------------------------------+

 Added /SIMULATION CONTROL/EXECUTION CONTROL/EXECUTABLE SELECTION/Double
 Precision = Off.
 

 +--------------------------------------------------------------------+
 |                                                                    |
 |                    CFX Command Language for Run                    |
 |                                                                    |
 +--------------------------------------------------------------------+

 LIBRARY:
   MATERIAL: Air at 25 C
     Material Description = Air at 25 C and 1 atm (dry)
     Material Group = Air Data, Constant Property Gases
     Option = Pure Substance
     Thermodynamic State = Gas
     PROPERTIES:
       Option = General Material
       EQUATION OF STATE:
         Density = 1.185 [kg m^-3]
         Molar Mass = 28.96 [kg kmol^-1]
         Option = Value
       END
       SPECIFIC HEAT CAPACITY:
         Option = Value
         Specific Heat Capacity = 1.0044E+03 [J kg^-1 K^-1]
         Specific Heat Type = Constant Pressure
       END
       REFERENCE STATE:
         Option = Specified Point
         Reference Pressure = 1 [atm]
         Reference Specific Enthalpy = 0. [J/kg]
         Reference Specific Entropy = 0. [J/kg/K]
         Reference Temperature = 25 [C]
       END
       DYNAMIC VISCOSITY:
         Dynamic Viscosity = 1.831E-05 [kg m^-1 s^-1]
         Option = Value
       END
       THERMAL CONDUCTIVITY:
         Option = Value
         Thermal Conductivity = 2.61E-02 [W m^-1 K^-1]
       END
       ABSORPTION COEFFICIENT:
         Absorption Coefficient = 0.01 [m^-1]
         Option = Value
       END
       SCATTERING COEFFICIENT:
         Option = Value
         Scattering Coefficient = 0.0 [m^-1]
       END
       REFRACTIVE INDEX:
         Option = Value
         Refractive Index = 1.0 [m m^-1]
       END
       THERMAL EXPANSIVITY:
         Option = Value
         Thermal Expansivity = 0.003356 [K^-1]
       END
     END
   END
 END
 FLOW: Flow Analysis 1
   SOLUTION UNITS:
     Angle Units = [rad]
     Length Units = [m]
     Mass Units = [kg]
     Solid Angle Units = [sr]
     Temperature Units = [K]
     Time Units = [s]
   END
   ANALYSIS TYPE:
     Option = Steady State
     EXTERNAL SOLVER COUPLING:
       Option = None
     END
   END
   DOMAIN: Default Domain
     Coord Frame = Coord 0
     Domain Type = Fluid
     Location = B16
     BOUNDARY: Default Domain Default
       Boundary Type = WALL
       Location = F17.16,F18.16,F19.16
       BOUNDARY CONDITIONS:
         MASS AND MOMENTUM:
           Option = No Slip Wall
         END
         WALL ROUGHNESS:
           Option = Smooth Wall
         END
       END
     END
     BOUNDARY: Inlet
       Boundary Type = INLET
       Location = Inlet
       BOUNDARY CONDITIONS:
         FLOW REGIME:
           Option = Subsonic
         END
         MASS AND MOMENTUM:
           Normal Speed = 0.01 [m s^-1]
           Option = Normal Speed
         END
         TURBULENCE:
           Option = Medium Intensity and Eddy Viscosity Ratio
         END
       END
     END
     BOUNDARY: Outlet
       Boundary Type = OUTLET
       Location = Outlet
       BOUNDARY CONDITIONS:
         FLOW REGIME:
           Option = Subsonic
         END
         MASS AND MOMENTUM:
           Option = Average Static Pressure
           Pressure Profile Blend = 0.05
           Relative Pressure = 0 [Pa]
         END
         PRESSURE AVERAGING:
           Option = Average Over Whole Outlet
         END
       END
     END
     BOUNDARY: Symmetry
       Boundary Type = SYMMETRY
       Location = Symmetry
     END
     DOMAIN MODELS:
       BUOYANCY MODEL:
         Option = Non Buoyant
       END
       DOMAIN MOTION:
         Option = Stationary
       END
       MESH DEFORMATION:
         Option = None
       END
       REFERENCE PRESSURE:
         Reference Pressure = 1 [atm]
       END
     END
     FLUID DEFINITION: Fluid 1
       Material = Air at 25 C
       Option = Material Library
       MORPHOLOGY:
         Option = Continuous Fluid
       END
     END
     FLUID MODELS:
       COMBUSTION MODEL:
         Option = None
       END
       HEAT TRANSFER MODEL:
         Fluid Temperature = 25 [C]
         Option = Isothermal
       END
       THERMAL RADIATION MODEL:
         Option = None
       END
       TURBULENCE MODEL:
         Option = k epsilon
       END
       TURBULENT WALL FUNCTIONS:
         Option = Scalable
       END
     END
   END
   OUTPUT CONTROL:
     RESULTS:
       File Compression Level = Default
       Option = Standard
     END
   END
   SOLVER CONTROL:
     Turbulence Numerics = First Order
     ADVECTION SCHEME:
       Option = High Resolution
     END
     CONVERGENCE CONTROL:
       Length Scale Option = Conservative
       Maximum Number of Iterations = 100
       Minimum Number of Iterations = 1
       Timescale Control = Auto Timescale
       Timescale Factor = 1.0
     END
     CONVERGENCE CRITERIA:
       Residual Target = 1.E-4
       Residual Type = RMS
     END
     DYNAMIC MODEL CONTROL:
       Global Dynamic Model Control = On
     END
   END
 END
 COMMAND FILE:
   Version = 15.0
   Results Version = 15.0.7
 END
 SIMULATION CONTROL:
   EXECUTION CONTROL:
     EXECUTABLE SELECTION:
       Double Precision = Off
     END
     PARALLEL HOST LIBRARY:
       HOST DEFINITION: rd000d3a212c01
         Host Architecture String = winnt-amd64
         Installation Root = \\hsransys.file.core.windows.net\main\apps\ANSYS \
           Inc\v%v\CFX
       END
     END
     PARTITIONER STEP CONTROL:
       PARTITIONING TYPE:
         Option = MeTiS
         MeTiS Type = k-way
         Partition Size Rule = Automatic
         Partition Weight Factors = 0.06250, 0.06250, 0.06250, 0.06250, \
           0.06250, 0.06250, 0.06250, 0.06250, 0.06250, 0.06250, 0.06250, \
           0.06250, 0.06250, 0.06250, 0.06250, 0.06250
       END
     END
     RUN DEFINITION:
       Solver Input File = \
         \\10.10.13.6\C\Resources\directory\1399551deb254def824362b9986f8f88.H\
         SR.AzureEE.HpcWorkerRole.jobdata\job-1\pipe01.def
       Run Mode = Full
     END
     SOLVER STEP CONTROL:
       PARALLEL ENVIRONMENT:
         Start Method = MSMPI2
         Number of Processes = 16
         Parallel Host List = rd000d3a212c01*16
       END
     END
   END
 END
 

 +--------------------------------------------------------------------+
 |                                                                    |
 |                            Partitioning                            |
 |                                                                    |
 +--------------------------------------------------------------------+




 +--------------------------------------------------------------------+
 |                                                                    |
 |                 ANSYS(R) CFX(R) Partitioner 15.0.7                 |
 |                                                                    |
 | Version 2014.04.10-23.00-131675     Thu Apr 10 23:23:37 GMTDT 2014 |
 |                                                                    |
 |                        Executable Attributes                       |
 |                                                                    |
 |          single-64bit-int32-supfort-optimised-noprof-lcomp         |
 |                                                                    |
 | (C) 2014 ANSYS, Inc.                                               |
 |                                                                    |
 | All rights reserved. Unauthorized use, distribution or duplication |
 | is prohibited. This product is subject to U.S. laws governing      |
 | export and re-export. For full Legal Notice, see documentation.    |
 +--------------------------------------------------------------------+




 +--------------------------------------------------------------------+
 |                  Job Information at Start of Run                   |
 +--------------------------------------------------------------------+

 Run mode:       partitioning run

 +------------------------------+------+--------+----------+----------+
 | Host                         | Mesh |  PID   |     Job Started     |
 |                              | Part |        | DD/MM/YY | hh:mm:ss |
 +------------------------------+------+--------+----------+----------+
 | RD000D3A212C01               |    1 |   3600 | 21/05/15 | 11:27:15 |
 +------------------------------+------+--------+----------+----------+


 +--------------------------------------------------------------------+
 |        Memory Allocated for Run  (Actual usage may be less)        |
 +--------------------------------------------------------------------+

           | Real       | Integer    | Character | Logical  | Double
 ----------+------------+------------+-----------+----------+----------
 Mwords    |       1.05 |       1.55 |      3.26 |     0.12 |     0.07
 Mbytes    |       4.00 |       5.90 |      3.11 |     0.46 |     0.52
 ----------+------------+------------+-----------+----------+----------


 +--------------------------------------------------------------------+
 |                  Host Memory Information (Mbytes)                  |
 +--------------------------------------------------------------------+
 |          Host           |     System     |   Allocated    |   %    |
 +-------------------------+----------------+----------------+--------+
 | RD000D3A212C01          |     57343.55   |        13.98   |   0.02 |
 +-------------------------+----------------+----------------+--------+

 +--------------------------------------------------------------------+
 |                          Mesh Statistics                           |
 +--------------------------------------------------------------------+

 Domain Name : Default Domain

     Total Number of Nodes                                =        8478

     Total Number of Elements                             =        5634
         Total Number of Hexahedrons                      =        5634

     Total Number of Faces                                =        5044

 +--------------------------------------------------------------------+
 |                     Vertex Based Partitioning                      |
 +--------------------------------------------------------------------+

 Partitioning of domain: Default Domain

 - Partitioning tool:       MeTiS multilevel k-way algorithm
 - Number of partitions:            16
 - Number of graph-nodes:         8478
 - Number of graph-edges:        44534

 +--------------------------------------------------------------------+
 |                      Partitioning Information                      |
 +--------------------------------------------------------------------+

 Partitioning information for domain: Default Domain

        +------------------+------------------------+-----------------+
        |     Elements     |        Vertices        |     Faces       |
 +------+------------------+------------------------+-----------------+
 | Part |   Number     %   |   Number     %   %Ovlp |  Number     %   |
 +------+------------------+------------------------+-----------------+
 | Full |      5634        |      8478              |     5044        |
 +------+------------------+------------------------+-----------------+
 |    1 |       385    6.4 |       616    6.5  11.9 |      345    6.5 |
 |    2 |       372    6.2 |       587    6.2   6.6 |      343    6.4 |
 |    3 |       365    6.1 |       582    6.1  11.7 |      325    6.1 |
 |    4 |       360    6.0 |       574    6.0  13.2 |      313    5.9 |
 |    5 |       374    6.2 |       589    6.2  10.2 |      330    6.2 |
 |    6 |       371    6.2 |       590    6.2  12.2 |      324    6.1 |
 |    7 |       373    6.2 |       598    6.3  14.0 |      327    6.1 |
 |    8 |       369    6.2 |       589    6.2  12.7 |      329    6.2 |
 |    9 |       360    6.0 |       567    6.0   4.8 |      338    6.3 |
 |   10 |       378    6.3 |       594    6.3   9.1 |      336    6.3 |
 |   11 |       390    6.5 |       615    6.5  11.7 |      340    6.4 |
 |   12 |       381    6.4 |       601    6.3   9.5 |      340    6.4 |
 |   13 |       372    6.2 |       593    6.2  11.0 |      334    6.3 |
 |   14 |       380    6.3 |       601    6.3  10.8 |      336    6.3 |
 |   15 |       374    6.2 |       589    6.2  10.2 |      330    6.2 |
 |   16 |       381    6.4 |       614    6.5  12.1 |      346    6.5 |
 +------+------------------+------------------------+-----------------+
 | Min  |       360    6.0 |       567    6.0   4.8 |      313    5.9 |
 |(part)|           (    4)|           (    9     9)|          (    4)|
 +------+------------------+------------------------+-----------------+
 | Max  |       390    6.5 |       616    6.5  13.6 |      346    6.5 |
 |(part)|           (   11)|           (    1     7)|          (   16)|
 +------+------------------+------------------------+-----------------+
 | Ave  |       374    6.2 |       594    6.3  10.8 |      334    6.3 |
 +------+------------------+------------------------+-----------------+
 | Sum  |      5985  100.0 |      9499  100.0  10.7 |     5336  100.0 |
 +------+------------------+------------------------+-----------------+

 +--------------------------------------------------------------------+
 |                 Partitioning CPU-Time Requirements                 |
 +--------------------------------------------------------------------+
  
 - Preparations                                       7.800E-02 seconds
 - Low-level mesh partitioning                        1.380E-01 seconds
 - Global partitioning information                    1.600E-02 seconds
 - Element and face partitioning information          0.000E+00 seconds
 - Vertex partitioning information                    0.000E+00 seconds
 - Partitioning information compression               0.000E+00 seconds
 - Summed CPU-time for mesh partitioning              2.950E-01 seconds

 +--------------------------------------------------------------------+
 |                   Job Information at End of Run                    |
 +--------------------------------------------------------------------+

 +---------------------------+------+----------+----------+-----------+
 | Host                      | Mesh |     Job Finished    |    CPU    |
 |                           | Part | DD/MM/YY | hh:mm:ss |  seconds  |
 +---------------------------+------+----------+----------+-----------+
 | RD000D3A212C01            |    1 | 21/05/15 | 11:27:19 | 5.202E+00 |
 +---------------------------+------+----------+----------+-----------+

 Total wall clock time: 4.811E+00 seconds
             or: (          0:         0:         0:     4.811 )
                 (       Days:     Hours:   Minutes:   Seconds )


 +--------------------------------------------------------------------+
 |                                                                    |
 |                               Solver                               |
 |                                                                    |
 +--------------------------------------------------------------------+




 +--------------------------------------------------------------------+
 |                                                                    |
 |                    ANSYS(R) CFX(R) Solver 15.0.7                   |
 |                                                                    |
 | Version 2014.04.10-23.00-131675     Thu Apr 10 23:23:23 GMTDT 2014 |
 |                                                                    |
 |                        Executable Attributes                       |
 |                                                                    |
 |          single-64bit-int32-supfort-optimised-noprof-lcomp         |
 |                                                                    |
 | (C) 2014 ANSYS, Inc.                                               |
 |                                                                    |
 | All rights reserved. Unauthorized use, distribution or duplication |
 | is prohibited. This product is subject to U.S. laws governing      |
 | export and re-export. For full Legal Notice, see documentation.    |
 +--------------------------------------------------------------------+




 +--------------------------------------------------------------------+
 |                  Job Information at Start of Run                   |
 +--------------------------------------------------------------------+

 Run mode:       parallel run (MS MPI)

 +------------------------------+------+--------+----------+----------+
 | Host                         | Mesh |  PID   |     Job Started     |
 |                              | Part |        | DD/MM/YY | hh:mm:ss |
 +------------------------------+------+--------+----------+----------+
 | RD000D3A212C01               |    1 |   2192 | 21/05/15 | 11:27:43 |
 |                              |    2 |   3308 | 21/05/15 | 11:27:43 |
 |                              |    3 |   1896 | 21/05/15 | 11:27:43 |
 |                              |    4 |   2428 | 21/05/15 | 11:27:43 |
 |                              |    5 |   3912 | 21/05/15 | 11:27:43 |
 |                              |    6 |   3408 | 21/05/15 | 11:27:43 |
 |                              |    7 |   2608 | 21/05/15 | 11:27:43 |
 |                              |    8 |   3784 | 21/05/15 | 11:27:43 |
 +------------------------------+------+--------+----------+----------+
 | RD000D3A213F09               |    9 |   1880 | 21/05/15 | 11:27:43 |
 |                              |   10 |   1984 | 21/05/15 | 11:27:43 |
 |                              |   11 |   1816 | 21/05/15 | 11:27:43 |
 |                              |   12 |   3588 | 21/05/15 | 11:27:43 |
 |                              |   13 |   3444 | 21/05/15 | 11:27:43 |
 |                              |   14 |   3836 | 21/05/15 | 11:27:43 |
 |                              |   15 |   2640 | 21/05/15 | 11:27:43 |
 |                              |   16 |   2440 | 21/05/15 | 11:27:43 |
 +------------------------------+------+--------+----------+----------+

 +--------------------------------------------------------------------+
 |                        License Information                         |
 +--------------------------------------------------------------------+
 
 License Cap:    ANSYS CFX Solver (Max 128K Nodes)
 License Cap:     Parallel
 License ID:     hsrAnsysLS-SYSTEM-320-033131


 +--------------------------------------------------------------------+
 |        Memory Allocated for Run  (Actual usage may be less)        |
 +--------------------------------------------------------------------+

 Allocated storage in:    Mwords
                          Mbytes

 Partition | Real       | Integer    | Character | Logical  | Double
 ----------+------------+------------+-----------+----------+----------
   Minimum |       3.38 |       1.69 |      3.71 |     0.12 |     0.08
  (     4) |      12.90 |       6.46 |      3.53 |     0.11 |     0.58
 ----------+------------+------------+-----------+----------+----------
   Maximum |       3.62 |       1.71 |      3.71 |     0.12 |     0.08
  (     1) |      13.80 |       6.51 |      3.53 |     0.11 |     0.58
 ----------+------------+------------+-----------+----------+----------
   Average |       3.48 |       1.70 |      3.71 |     0.12 |     0.08
           |      13.27 |       6.47 |      3.53 |     0.11 |     0.58
 ----------+------------+------------+-----------+----------+----------
     Total |      55.64 |      27.14 |     59.29 |     1.92 |     1.21
           |     212.27 |     103.52 |     56.55 |     1.83 |     9.23
 ----------+------------+------------+-----------+----------+----------


 +--------------------------------------------------------------------+
 |                  Host Memory Information (Mbytes)                  |
 +--------------------------------------------------------------------+
 |           Host         | Npart |   System    |  Allocated  |   %   |
 +------------------------+-------+-------------+-------------+-------+
 | RD000D3A212C01         |    8  |    57343.55 |      191.26 |  0.33 |
 +------------------------+-------+-------------+-------------+-------+
 | RD000D3A213F09         |    8  |    57343.55 |      192.13 |  0.34 |
 +------------------------+-------+-------------+-------------+-------+
 | Total                  |   16  |   114687.10 |      383.39 |  0.33 |
 +------------------------+-------+-------------+-------------+-------+

 +--------------------------------------------------------------------+
 |                          Mesh Statistics                           |
 +--------------------------------------------------------------------+
 | Domain Name          | Orthog. Angle | Exp. Factor  | Aspect Ratio |
 +----------------------+---------------+--------------+--------------+
 |                      | Minimum [deg] |   Maximum    |    Maximum   |
 +----------------------+---------------+--------------+--------------+
 | Default Domain       |       69.3 OK |         4 OK |         4 OK |
 +----------------------+---------------+--------------+--------------+
 |                      |  %!  %ok  %OK | %!  %ok  %OK | %!  %ok  %OK |
 +----------------------+---------------+--------------+--------------+
 | Default Domain       |   0    0  100 |  0    0  100 |  0    0  100 |
 +----------------------+---------------+--------------+--------------+

 Domain Name : Default Domain

     Total Number of Nodes                                =        8478

     Total Number of Elements                             =        5634
         Total Number of Hexahedrons                      =        5634

     Total Number of Faces                                =        5044

 +--------------------------------------------------------------------+
 |                     Average Scale Information                      |
 +--------------------------------------------------------------------+

 Domain Name : Default Domain
     Global Length                                         = 8.6454E-02
     Minimum Extent                                        = 1.6000E-02
     Maximum Extent                                        = 8.3800E-01
     Density                                               = 1.1850E+00
     Dynamic Viscosity                                     = 1.8310E-05
     Velocity                                              = 8.1802E-03
     Advection Time                                        = 1.0569E+01
     Reynolds Number                                       = 4.5770E+01
 
 +--------------------------------------------------------------------+
 | ERROR #002100004 has occurred in subroutine Out_Scales_Flu.        |
 | Message:                                                           |
 | The Reynolds number is outside of the range expected based on the  |
 | Option selected for the TURBULENCE MODEL. Check this setting,      |
 | the values of the properties, mesh scale, consistency of units     |
 | and solution values in the input file. Execution will proceed.     |
 +--------------------------------------------------------------------+

 +--------------------------------------------------------------------+
 |                Checking for Isolated Fluid Regions                 |
 +--------------------------------------------------------------------+
 
 No isolated fluid regions were found.

 +--------------------------------------------------------------------+
 |              The Equations Solved in This Calculation              |
 +--------------------------------------------------------------------+

 Subsystem : Momentum and Mass

   U-Mom
   V-Mom
   W-Mom
   P-Mass

 Subsystem : TurbKE and Diss.K

   K-TurbKE
   E-Diss.K
                   
 CFD Solver started: Thu May 21 11:28:14 2015


 +--------------------------------------------------------------------+
 |                       Convergence History                          |
 +--------------------------------------------------------------------+

 ======================================================================
 |                        Timescale Information                       |
 ----------------------------------------------------------------------
 |       Equation       |         Type          |      Timescale      |
 +----------------------+-----------------------+---------------------+
 | U-Mom                | Auto Timescale        |     2.59362E+00     |
 | V-Mom                | Auto Timescale        |     2.59362E+00     |
 | W-Mom                | Auto Timescale        |     2.59362E+00     |
 +----------------------+-----------------------+---------------------+
 | K-TurbKE             | Auto Timescale        |     2.59362E+00     |
 | E-Diss.K             | Auto Timescale        |     2.59362E+00     |
 +----------------------+-----------------------+---------------------+

 ======================================================================
 OUTER LOOP ITERATION =    1                    CPU SECONDS = 6.613E+02
 ----------------------------------------------------------------------
 |       Equation       | Rate | RMS Res | Max Res |  Linear Solution |
 +----------------------+------+---------+---------+------------------+
 | U-Mom                | 0.00 | 4.8E-04 | 2.1E-03 |       3.8E+00  ok|
 | V-Mom                | 0.00 | 5.0E-04 | 2.1E-03 |       4.3E+00  ok|
 | W-Mom                | 0.00 | 1.4E-05 | 6.0E-05 |       2.3E+01  ok|
 | P-Mass               | 0.00 | 2.1E-02 | 9.1E-02 |  8.8  2.2E-02  OK|
 +----------------------+------+---------+---------+------------------+
 | K-TurbKE             | 0.00 | 2.5E-03 | 5.4E-02 | 10.1  5.4E-02  OK|
 | E-Diss.K             | 0.00 | 8.4E-02 | 1.0E+00 | 11.4  5.2E-03  OK|
 +----------------------+------+---------+---------+------------------+

 ======================================================================
 OUTER LOOP ITERATION =    2                    CPU SECONDS = 7.042E+02
 ----------------------------------------------------------------------
 |       Equation       | Rate | RMS Res | Max Res |  Linear Solution |
 +----------------------+------+---------+---------+------------------+
 | U-Mom                | 8.95 | 4.3E-03 | 3.7E-02 |       1.3E-01  ok|
 | V-Mom                | 9.06 | 4.5E-03 | 3.7E-02 |       1.5E-01  ok|
 | W-Mom                |99.99 | 2.4E-03 | 8.2E-03 |       5.5E-02  OK|
 | P-Mass               | 0.33 | 6.9E-03 | 1.2E-01 |  8.8  8.1E-02  OK|
 +----------------------+------+---------+---------+------------------+
 | K-TurbKE             | 0.20 | 4.9E-04 | 6.9E-03 | 14.6  6.0E-02  OK|
 | E-Diss.K             | 1.07 | 8.9E-02 | 9.7E-01 | 11.6  7.2E-03  OK|
 +----------------------+------+---------+---------+------------------+

 ======================================================================
 OUTER LOOP ITERATION =    3                    CPU SECONDS = 7.095E+02
 ----------------------------------------------------------------------
 |       Equation       | Rate | RMS Res | Max Res |  Linear Solution |
 +----------------------+------+---------+---------+------------------+
 | U-Mom                | 1.11 | 4.8E-03 | 5.0E-02 |       5.7E-02  OK|
 | V-Mom                | 1.08 | 4.9E-03 | 5.2E-02 |       6.2E-02  OK|
 | W-Mom                | 0.81 | 1.9E-03 | 9.1E-03 |       3.7E-02  OK|
 | P-Mass               | 0.35 | 2.4E-03 | 7.0E-02 | 12.7  9.1E-02  OK|
 +----------------------+------+---------+---------+------------------+
 | K-TurbKE             | 1.27 | 6.3E-04 | 7.7E-03 | 10.0  5.3E-02  OK|
 | E-Diss.K             | 0.58 | 5.2E-02 | 4.3E-01 | 11.7  6.1E-03  OK|
 +----------------------+------+---------+---------+------------------+

 ======================================================================
 OUTER LOOP ITERATION =    4                    CPU SECONDS = 7.147E+02
 ----------------------------------------------------------------------
 |       Equation       | Rate | RMS Res | Max Res |  Linear Solution |
 +----------------------+------+---------+---------+------------------+
 | U-Mom                | 0.57 | 2.7E-03 | 3.5E-02 |       1.6E-01  ok|
 | V-Mom                | 0.56 | 2.8E-03 | 3.2E-02 |       1.5E-01  ok|
 | W-Mom                | 0.72 | 1.4E-03 | 9.1E-03 |       5.3E-02  OK|
 | P-Mass               | 2.30 | 5.6E-03 | 8.5E-02 |  4.9  4.9E-02  OK|
 +----------------------+------+---------+---------+------------------+
 | K-TurbKE             | 1.62 | 1.0E-03 | 1.3E-02 | 10.1  3.7E-02  OK|
 | E-Diss.K             | 0.67 | 3.5E-02 | 3.9E-01 | 11.8  3.6E-03  OK|
 +----------------------+------+---------+---------+------------------+

 ======================================================================
 OUTER LOOP ITERATION =    5                    CPU SECONDS = 7.195E+02
 ----------------------------------------------------------------------
 |       Equation       | Rate | RMS Res | Max Res |  Linear Solution |
 +----------------------+------+---------+---------+------------------+
 | U-Mom                | 0.50 | 1.4E-03 | 2.1E-02 |       1.2E-01  ok|
 | V-Mom                | 0.49 | 1.4E-03 | 1.9E-02 |       1.1E-01  ok|
 | W-Mom                | 0.53 | 7.4E-04 | 5.6E-03 |       4.6E-02  OK|
 | P-Mass               | 0.90 | 5.1E-03 | 9.4E-02 |  4.9  3.7E-02  OK|
 +----------------------+------+---------+---------+------------------+
 | K-TurbKE             | 1.13 | 1.1E-03 | 1.7E-02 | 10.1  2.5E-02  OK|
 | E-Diss.K             | 1.37 | 4.8E-02 | 5.0E-01 | 11.8  4.4E-03  OK|
 +----------------------+------+---------+---------+------------------+

 ======================================================================
 |                        Timescale Information                       |
 ----------------------------------------------------------------------
 |       Equation       |         Type          |      Timescale      |
 +----------------------+-----------------------+---------------------+
 | U-Mom                | Auto Timescale        |     2.58484E+00     |
 | V-Mom                | Auto Timescale        |     2.58484E+00     |
 | W-Mom                | Auto Timescale        |     2.58484E+00     |
 +----------------------+-----------------------+---------------------+
 | K-TurbKE             | Auto Timescale        |     2.58484E+00     |
 | E-Diss.K             | Auto Timescale        |     2.58484E+00     |
 +----------------------+-----------------------+---------------------+

 ======================================================================
 OUTER LOOP ITERATION =    6                    CPU SECONDS = 7.245E+02
 ----------------------------------------------------------------------
 |       Equation       | Rate | RMS Res | Max Res |  Linear Solution |
 +----------------------+------+---------+---------+------------------+
 | U-Mom                | 0.50 | 6.9E-04 | 1.2E-02 |       1.2E-01  ok|
 | V-Mom                | 0.50 | 6.8E-04 | 1.1E-02 |       1.1E-01  ok|
 | W-Mom                | 0.46 | 3.4E-04 | 2.6E-03 |       4.1E-02  OK|
 | P-Mass               | 0.66 | 3.3E-03 | 6.9E-02 |  4.9  2.8E-02  OK|
 +----------------------+------+---------+---------+------------------+
 | K-TurbKE             | 0.86 | 9.8E-04 | 1.1E-02 | 10.1  1.9E-02  OK|
 | E-Diss.K             | 0.99 | 4.7E-02 | 4.2E-01 | 11.8  4.3E-03  OK|
 +----------------------+------+---------+---------+------------------+

 ======================================================================
 OUTER LOOP ITERATION =    7                    CPU SECONDS = 7.295E+02
 ----------------------------------------------------------------------
 |       Equation       | Rate | RMS Res | Max Res |  Linear Solution |
 +----------------------+------+---------+---------+------------------+
 | U-Mom                | 0.53 | 3.6E-04 | 7.0E-03 |       1.1E-01  ok|
 | V-Mom                | 0.52 | 3.6E-04 | 5.6E-03 |       1.2E-01  ok|
 | W-Mom                | 0.52 | 1.8E-04 | 1.4E-03 |       4.6E-02  OK|
 | P-Mass               | 0.65 | 2.2E-03 | 4.6E-02 |  4.9  2.3E-02  OK|
 +----------------------+------+---------+---------+------------------+
 | K-TurbKE             | 0.82 | 8.1E-04 | 7.3E-03 |  5.5  8.5E-02  OK|
 | E-Diss.K             | 0.84 | 4.0E-02 | 3.2E-01 | 11.8  3.9E-03  OK|
 +----------------------+------+---------+---------+------------------+

 ======================================================================
 OUTER LOOP ITERATION =    8                    CPU SECONDS = 7.339E+02
 ----------------------------------------------------------------------
 |       Equation       | Rate | RMS Res | Max Res |  Linear Solution |
 +----------------------+------+---------+---------+------------------+
 | U-Mom                | 0.53 | 1.9E-04 | 4.0E-03 |       7.5E-02  OK|
 | V-Mom                | 0.54 | 1.9E-04 | 3.1E-03 |       1.5E-01  ok|
 | W-Mom                | 0.55 | 9.6E-05 | 6.3E-04 |       4.1E-02  OK|
 | P-Mass               | 0.55 | 1.2E-03 | 2.6E-02 |  4.9  2.4E-02  OK|
 +----------------------+------+---------+---------+------------------+
 | K-TurbKE             | 0.85 | 6.9E-04 | 6.3E-03 |  5.5  8.2E-02  OK|
 | E-Diss.K             | 0.87 | 3.5E-02 | 2.6E-01 | 11.8  3.8E-03  OK|
 +----------------------+------+---------+---------+------------------+

 ======================================================================
 OUTER LOOP ITERATION =    9                    CPU SECONDS = 7.382E+02
 ----------------------------------------------------------------------
 |       Equation       | Rate | RMS Res | Max Res |  Linear Solution |
 +----------------------+------+---------+---------+------------------+
 | U-Mom                | 0.59 | 1.1E-04 | 2.2E-03 |       7.1E-02  OK|
 | V-Mom                | 0.61 | 1.2E-04 | 2.3E-03 |       1.9E-01  ok|
 | W-Mom                | 0.65 | 6.2E-05 | 5.2E-04 |       4.5E-02  OK|
 | P-Mass               | 0.53 | 6.4E-04 | 1.2E-02 |  4.9  2.8E-02  OK|
 +----------------------+------+---------+---------+------------------+
 | K-TurbKE             | 0.87 | 6.0E-04 | 5.2E-03 |  5.5  7.7E-02  OK|
 | E-Diss.K             | 0.90 | 3.1E-02 | 2.2E-01 | 11.8  3.9E-03  OK|
 +----------------------+------+---------+---------+------------------+

 ======================================================================
 OUTER LOOP ITERATION =   10                    CPU SECONDS = 7.426E+02
 ----------------------------------------------------------------------
 |       Equation       | Rate | RMS Res | Max Res |  Linear Solution |
 +----------------------+------+---------+---------+------------------+
 | U-Mom                | 0.66 | 7.5E-05 | 1.6E-03 |       6.1E-02  OK|
 | V-Mom                | 0.71 | 8.3E-05 | 1.8E-03 |       2.3E-01  ok|
 | W-Mom                | 0.71 | 4.4E-05 | 4.9E-04 |       5.1E-02  OK|
 | P-Mass               | 0.52 | 3.3E-04 | 5.2E-03 |  4.9  4.0E-02  OK|
 +----------------------+------+---------+---------+------------------+
 | K-TurbKE             | 0.88 | 5.3E-04 | 4.2E-03 |  5.5  7.5E-02  OK|
 | E-Diss.K             | 0.91 | 2.8E-02 | 1.9E-01 | 11.8  4.2E-03  OK|
 +----------------------+------+---------+---------+------------------+

 ======================================================================
 |                        Timescale Information                       |
 ----------------------------------------------------------------------
 |       Equation       |         Type          |      Timescale      |
 +----------------------+-----------------------+---------------------+
 | U-Mom                | Auto Timescale        |     2.59362E+00     |
 | V-Mom                | Auto Timescale        |     2.59362E+00     |
 | W-Mom                | Auto Timescale        |     2.59362E+00     |
 +----------------------+-----------------------+---------------------+
 | K-TurbKE             | Auto Timescale        |     2.59362E+00     |
 | E-Diss.K             | Auto Timescale        |     2.59362E+00     |
 +----------------------+-----------------------+---------------------+

 ======================================================================
 OUTER LOOP ITERATION =   11                    CPU SECONDS = 7.475E+02
 ----------------------------------------------------------------------
 |       Equation       | Rate | RMS Res | Max Res |  Linear Solution |
 +----------------------+------+---------+---------+------------------+
 | U-Mom                | 0.73 | 5.5E-05 | 1.3E-03 |       6.8E-02  OK|
 | V-Mom                | 0.79 | 6.5E-05 | 1.5E-03 |       2.4E-01  ok|
 | W-Mom                | 0.74 | 3.3E-05 | 4.0E-04 |       5.9E-02  OK|
 | P-Mass               | 0.53 | 1.8E-04 | 2.0E-03 |  4.9  6.0E-02  OK|
 +----------------------+------+---------+---------+------------------+
 | K-TurbKE             | 0.90 | 4.7E-04 | 3.3E-03 |  5.5  7.4E-02  OK|
 | E-Diss.K             | 0.91 | 2.6E-02 | 1.6E-01 | 11.8  4.8E-03  OK|
 +----------------------+------+---------+---------+------------------+

 ======================================================================
 OUTER LOOP ITERATION =   12                    CPU SECONDS = 7.522E+02
 ----------------------------------------------------------------------
 |       Equation       | Rate | RMS Res | Max Res |  Linear Solution |
 +----------------------+------+---------+---------+------------------+
 | U-Mom                | 0.77 | 4.3E-05 | 1.0E-03 |       7.7E-02  OK|
 | V-Mom                | 0.83 | 5.4E-05 | 1.3E-03 |       2.4E-01  ok|
 | W-Mom                | 0.74 | 2.4E-05 | 3.1E-04 |       6.8E-02  OK|
 | P-Mass               | 0.56 | 9.9E-05 | 1.3E-03 |  4.9  8.6E-02  OK|
 +----------------------+------+---------+---------+------------------+
 | K-TurbKE             | 0.90 | 4.3E-04 | 2.5E-03 |  5.5  7.3E-02  OK|
 | E-Diss.K             | 0.91 | 2.4E-02 | 1.4E-01 | 11.8  5.5E-03  OK|
 +----------------------+------+---------+---------+------------------+
                   
 CFD Solver finished: Thu May 21 11:28:20 2015
 CFD Solver wall clock seconds: 6.1500E+00

 ======================================================================
              Termination and Interrupt Condition Summary
 ======================================================================
    
 CFD Solver: All target criteria reached
   (Equation residuals)

 ======================================================================
              Boundary Flow and Total Source Term Summary
 ======================================================================

 +--------------------------------------------------------------------+
 |                               U-Mom                                |
 +--------------------------------------------------------------------+
 Boundary         : Default Domain Default                 -1.5623E-07
 Boundary         : Inlet                                   1.5777E-07
 Boundary         : Outlet                                 -3.1134E-12
                                                           -----------
 Domain Imbalance :                                         1.5348E-09

 +--------------------------------------------------------------------+
 |                               V-Mom                                |
 +--------------------------------------------------------------------+
 Boundary         : Default Domain Default                 -4.3389E-08
 Boundary         : Inlet                                  -1.1199E-12
 Boundary         : Outlet                                  4.6855E-08
                                                           -----------
 Domain Imbalance :                                         3.4643E-09

 +--------------------------------------------------------------------+
 |                               W-Mom                                |
 +--------------------------------------------------------------------+
 Boundary         : Default Domain Default                 -8.1407E-06
 Boundary         : Inlet                                   8.6429E-12
 Boundary         : Outlet                                 -2.4711E-11
 Boundary         : Symmetry                                8.1404E-06
                                                           -----------
 Domain Imbalance :                                        -3.7835E-10

 +--------------------------------------------------------------------+
 |                               P-Mass                               |
 +--------------------------------------------------------------------+
 Boundary         : Inlet                                   4.6871E-06
 Boundary         : Outlet                                 -4.6858E-06
                                                           -----------
 Domain Imbalance :                                         1.2851E-09


 +--------------------------------------------------------------------+
 |                     Normalised Imbalance Summary                   |
 +--------------------------------------------------------------------+
 |       Equation       |      Maximum Flow     |     Imbalance (%)   |
 +--------------------------------------------------------------------+
 | U-Mom                |       8.1407E-06      |        0.0189       |
 | V-Mom                |       8.1407E-06      |        0.0426       |
 | W-Mom                |       8.1407E-06      |       -0.0046       |
 | P-Mass               |       4.6871E-06      |        0.0274       |
 +----------------------+-----------------------+---------------------+

 ======================================================================
                     Wall Force and Moment Summary
 ======================================================================
                                                                          
 Notes:
 1. Pressure integrals exclude the reference pressure.  To include
    it, set the expert parameter 'include pref in forces = t'.


 +--------------------------------------------------------------------+
 |                      Pressure Force On Walls                       |
 +--------------------------------------------------------------------+
                                    X-Comp.      Y-Comp.      Z-Comp.

 Domain Group: Default Domain

 Default Domain Default           1.3246E-07   1.1107E-07   8.1407E-06
                                  -----------  -----------  -----------
 Domain Group Totals :            1.3246E-07   1.1107E-07   8.1407E-06


 +--------------------------------------------------------------------+
 |                       Viscous Force On Walls                       |
 +--------------------------------------------------------------------+
                                    X-Comp.      Y-Comp.      Z-Comp.

 Domain Group: Default Domain

 Default Domain Default           2.3771E-08  -6.7680E-08  -9.3525E-12
                                  -----------  -----------  -----------
 Domain Group Totals :            2.3771E-08  -6.7680E-08  -9.3525E-12


 +--------------------------------------------------------------------+
 |                      Pressure Moment On Walls                      |
 +--------------------------------------------------------------------+
                                    X-Comp.      Y-Comp.      Z-Comp.

 Domain Group: Default Domain

 Default Domain Default          -3.1407E-07   2.8747E-06   4.8571E-10
                                  -----------  -----------  -----------
 Domain Group Totals :           -3.1407E-07   2.8747E-06   4.8571E-10


 +--------------------------------------------------------------------+
 |                       Viscous Moment On Walls                      |
 +--------------------------------------------------------------------+
                                    X-Comp.      Y-Comp.      Z-Comp.

 Domain Group: Default Domain

 Default Domain Default           6.8189E-10   2.3853E-10  -2.8430E-11
                                  -----------  -----------  -----------
 Domain Group Totals :            6.8189E-10   2.3853E-10  -2.8430E-11


 +--------------------------------------------------------------------+
 |                   Locations of Maximum Residuals                   |
 +--------------------------------------------------------------------+
 |       Equation       |      Domain Name      |     Node Number     |
 +--------------------------------------------------------------------+
 | U-Mom                | Default Domain        |           5193      |
 | V-Mom                | Default Domain        |           5202      |
 | W-Mom                | Default Domain        |           6578      |
 | P-Mass               | Default Domain        |           5185      |
 +----------------------+-----------------------+---------------------+
 | K-TurbKE             | Default Domain        |           5201      |
 | E-Diss.K             | Default Domain        |           6496      |
 +----------------------+-----------------------+---------------------+

 ======================================================================
 |                     False Transient Information                    |
 +--------------------------------------------------------------------+
 |       Equation       |         Type          | Elapsed Pseudo-Time |
 +--------------------------------------------------------------------+
 | U-Mom                | Auto Timescale        |     3.10795E+01     |
 | V-Mom                | Auto Timescale        |     3.10795E+01     |
 | W-Mom                | Auto Timescale        |     3.10795E+01     |
 +----------------------+-----------------------+---------------------+
 | K-TurbKE             | Auto Timescale        |     3.10795E+01     |
 | E-Diss.K             | Auto Timescale        |     3.10795E+01     |
 +----------------------+-----------------------+---------------------+

 +--------------------------------------------------------------------+
 |                     Average Scale Information                      |
 +--------------------------------------------------------------------+

 Domain Name : Default Domain
     Global Length                                         = 8.6454E-02
     Minimum Extent                                        = 1.6000E-02
     Maximum Extent                                        = 8.3800E-01
     Density                                               = 1.1850E+00
     Dynamic Viscosity                                     = 1.8310E-05
     Velocity                                              = 9.9983E-03
     Advection Time                                        = 8.6468E+00
     Reynolds Number                                       = 5.5942E+01
 
 +--------------------------------------------------------------------+
 | ERROR #002100004 has occurred in subroutine Out_Scales_Flu.        |
 | Message:                                                           |
 | The Reynolds number is outside of the range expected based on the  |
 | Option selected for the TURBULENCE MODEL. Check this setting,      |
 | the values of the properties, mesh scale, consistency of units     |
 | and solution values in the input file. Execution will proceed.     |
 +--------------------------------------------------------------------+

 +--------------------------------------------------------------------+
 |                     Variable Range Information                     |
 +--------------------------------------------------------------------+

 Domain Name : Default Domain
 +--------------------------------------------------------------------+
 |      Variable Name                         |    min    |    max    |
 +--------------------------------------------------------------------+
 | Density                                    |  1.18E+00 |  1.18E+00 |
 | Specific Heat Capacity at Constant Pressure|  1.00E+03 |  1.00E+03 |
 | Dynamic Viscosity                          |  1.83E-05 |  1.83E-05 |
 | Thermal Conductivity                       |  2.61E-02 |  2.61E-02 |
 | Static Entropy                             |  0.00E+00 |  0.00E+00 |
 | Velocity u                                 | -1.02E-03 |  1.12E-02 |
 | Velocity v                                 | -1.44E-02 |  2.29E-04 |
 | Velocity w                                 | -2.92E-04 |  2.74E-04 |
 | Pressure                                   | -8.70E-06 |  2.81E-04 |
 | Turbulence Kinetic Energy                  |  3.75E-07 |  2.34E-05 |
 | Turbulence Eddy Dissipation                |  1.22E-10 |  7.22E-07 |
 | Eddy Viscosity                             |  6.15E-05 |  1.23E-04 |
 | Temperature                                |  2.98E+02 |  2.98E+02 |
 +--------------------------------------------------------------------+

 +--------------------------------------------------------------------+
 |           CPU Requirements of Numerical Solution - Total           |
 +--------------------------------------------------------------------+

 Subsystem Name                  Discretization       Linear Solution
                                (secs.   %total)     (secs.   %total) 
 ----------------------------------------------------------------------
 Momentum and Mass              2.78E+01   3.5 %     1.54E+01   2.0 %
 TurbKE and Diss.K              6.61E+00   0.8 %     2.08E+01   2.6 %
                                -------- -------     --------  ------
 Subsystem Summary              3.44E+01   4.4 %     3.62E+01   4.6 %

 Variable Updates               2.91E+01    3.7 %
 File Reading                   2.34E+00    0.3 %
 File Writing                   5.41E+00    0.7 %
 Miscellaneous                  6.81E+02   86.4 %
                                --------
 Total                          7.88E+02

 +--------------------------------------------------------------------+
 |                   Job Information at End of Run                    |
 +--------------------------------------------------------------------+

 +---------------------------+------+----------+----------+-----------+
 | Host                      | Mesh |     Job Finished    |    CPU    |
 |                           | Part | DD/MM/YY | hh:mm:ss |  seconds  |
 +---------------------------+------+----------+----------+-----------+
 | RD000D3A212C01            |    1 | 21/05/15 | 11:28:22 | 5.322E+01 |
 |                           |    2 | 21/05/15 | 11:28:22 | 5.322E+01 |
 |                           |    3 | 21/05/15 | 11:28:22 | 5.322E+01 |
 |                           |    4 | 21/05/15 | 11:28:22 | 5.322E+01 |
 |                           |    5 | 21/05/15 | 11:28:22 | 5.322E+01 |
 |                           |    6 | 21/05/15 | 11:28:22 | 5.322E+01 |
 |                           |    7 | 21/05/15 | 11:28:22 | 5.322E+01 |
 |                           |    8 | 21/05/15 | 11:28:22 | 5.322E+01 |
 +---------------------------+------+----------+----------+-----------+
 | RD000D3A213F09            |    9 | 21/05/15 | 11:28:22 | 4.538E+01 |
 |                           |   10 | 21/05/15 | 11:28:22 | 4.538E+01 |
 |                           |   11 | 21/05/15 | 11:28:22 | 4.538E+01 |
 |                           |   12 | 21/05/15 | 11:28:22 | 4.538E+01 |
 |                           |   13 | 21/05/15 | 11:28:22 | 4.538E+01 |
 |                           |   14 | 21/05/15 | 11:28:22 | 4.538E+01 |
 |                           |   15 | 21/05/15 | 11:28:22 | 4.538E+01 |
 |                           |   16 | 21/05/15 | 11:28:22 | 4.538E+01 |
 +---------------------------+------+----------+----------+-----------+

 Total wall clock time: 4.473E+01 seconds
             or: (          0:         0:         0:    44.730 )
                 (       Days:     Hours:   Minutes:   Seconds )



 --> Final synchronization point reached by all partitions.
End of solution stage.

 +--------------------------------------------------------------------+
 | The results from this run of the ANSYS CFX Solver have been        |
 | written to                                                         |
 | \\10.10.13.6\C\Resources\directory\1399551deb254def824362b9986f8f- |
 | 88.HSR.AzureEE.HpcWorkerRole.jobdata\job-1\pipe01_001.res          |
 +--------------------------------------------------------------------+


This run of the ANSYS CFX Solver has finished.
