 This run of the CFX-15.0.7 Solver started at 06:22:36 on 29 May 2015 by
 user MpiUser on RD000D3A21FAED (intel_xeon64.sse2_winnt) using the
 command:
 
  "\\hsransys.file.core.windows.net\main\apps\ANSYS Inc\v150\CFX\bin\perllib\cfx5solve.pl"
    -def pipe08.def -chdir
    \\10.10.13.6\C\Resources\directory\3301acebc8f4463d990a819988261bb5.HSR.AzureEE.HpcWorkerRole.jobdata\job-2
    -start-method MSMPI2 -part 256
 
 Point Releases and Patches installed:
 
  ANSYS, Inc. Products 15.0.7
  ANSYS Mechanical Products 15.0.7
  ANSYS Autodyn 15.0.7
  ANSYS LS-DYNA 15.0.7
  ANSYS CFX (includes ANSYS CFD-Post) 15.0.7
  ANSYS Fluent (includes ANSYS CFD-Post) 15.0.7
  ANSYS TurboGrid 15.0.7
  ANSYS Polyflow (includes ANSYS CFD-Post) 15.0.7
  ANSYS Aqwa 15.0.7
  ANSYS ICEM CFD 15.0.7
  ANSYS Icepak (includes ANSYS CFD-Post) 15.0.7
  Catia, Version 6 15.0.7
  ANSYS, Inc. License Manager 15.0.7
 
 Setting up CFX Solver run ...
 

 +--------------------------------------------------------------------+
 |                              Warning!                              |
 |                                                                    |
 | The working directory is a UNC path, but the Windows command shell |
 | is currently not configured to support UNC paths. This may cause   |
 | failure of the CFX Solver.                                         |
 |                                                                    |
 | Command shell support for UNC paths can be enabled by setting the  |
 | Windows registry key DisableUNCCheck.                              |
 +--------------------------------------------------------------------+


 +--------------------------------------------------------------------+
 |                                                                    |
 |                    CFX Command Language Upgrade                    |
 |                                                                    |
 +--------------------------------------------------------------------+

 Added /SIMULATION CONTROL/EXECUTION CONTROL/EXECUTABLE SELECTION/Double
 Precision = Off.
 

 +--------------------------------------------------------------------+
 |                                                                    |
 |                    CFX Command Language for Run                    |
 |                                                                    |
 +--------------------------------------------------------------------+

 LIBRARY:
   CEL:
     EXPRESSIONS:
       DeltaT = probe(T)@MP3-273.15[K]
     END
   END
   MATERIAL: PE100RC
     Material Group = CHT Solids
     Option = Pure Substance
     Thermodynamic State = Solid
     PROPERTIES:
       Option = General Material
       EQUATION OF STATE:
         Density = 960 [kg m^-3]
         Molar Mass = 1.0 [kg kmol^-1]
         Option = Value
       END
       SPECIFIC HEAT CAPACITY:
         Option = Value
         Specific Heat Capacity = 1900 [J kg^-1 K^-1]
       END
       THERMAL CONDUCTIVITY:
         Option = Value
         Thermal Conductivity = 0.38 [W m^-1 K^-1]
       END
     END
   END
   MATERIAL: Water Glycol Mixture
     Material Description = Water (liquid)
     Material Group = Water Data,Constant Property Liquids
     Option = Pure Substance
     Thermodynamic State = Liquid
     PROPERTIES:
       Option = General Material
       EQUATION OF STATE:
         Density = 1042 [kg m^-3]
         Molar Mass = 18.02 [kg kmol^-1]
         Option = Value
       END
       SPECIFIC HEAT CAPACITY:
         Option = Value
         Specific Heat Capacity = 3481 [J kg^-1 K^-1]
         Specific Heat Type = Constant Pressure
       END
       REFERENCE STATE:
         Option = Specified Point
         Reference Pressure = 1 [atm]
         Reference Specific Enthalpy = 0.0 [J/kg]
         Reference Specific Entropy = 0.0 [J/kg/K]
         Reference Temperature = 0 [C]
       END
       DYNAMIC VISCOSITY:
         Dynamic Viscosity = 8.899E-4 [kg m^-1 s^-1]
         Option = Value
       END
       THERMAL CONDUCTIVITY:
         Option = Value
         Thermal Conductivity = 0.6069 [W m^-1 K^-1]
       END
       ABSORPTION COEFFICIENT:
         Absorption Coefficient = 1.0 [m^-1]
         Option = Value
       END
       SCATTERING COEFFICIENT:
         Option = Value
         Scattering Coefficient = 0.0 [m^-1]
       END
       REFRACTIVE INDEX:
         Option = Value
         Refractive Index = 1.0 [m m^-1]
       END
       THERMAL EXPANSIVITY:
         Option = Value
         Thermal Expansivity = 2.57E-04 [K^-1]
       END
     END
   END
 END
 FLOW: Flow Analysis 1
   SOLUTION UNITS:
     Angle Units = [rad]
     Length Units = [m]
     Mass Units = [kg]
     Solid Angle Units = [sr]
     Temperature Units = [K]
     Time Units = [s]
   END
   ANALYSIS TYPE:
     Option = Steady State
     EXTERNAL SOLVER COUPLING:
       Option = None
     END
   END
   DOMAIN: FluidDom
     Coord Frame = Coord 0
     Domain Type = Fluid
     Location = B446
     BOUNDARY: Default Fluid Solid Interface Side 1
       Boundary Type = INTERFACE
       Location = F449.446,F450.446,F452.446,F453.446,F454.446
       BOUNDARY CONDITIONS:
         HEAT TRANSFER:
           Option = Conservative Interface Flux
         END
         MASS AND MOMENTUM:
           Option = No Slip Wall
         END
         WALL ROUGHNESS:
           Option = Smooth Wall
         END
       END
     END
     BOUNDARY: Domain Interface 1 Side 1 1
       Boundary Type = INTERFACE
       Location = FluidSym01
       BOUNDARY CONDITIONS:
         HEAT TRANSFER:
           Option = Conservative Interface Flux
         END
         MASS AND MOMENTUM:
           Option = Conservative Interface Flux
         END
         TURBULENCE:
           Option = Conservative Interface Flux
         END
       END
     END
     BOUNDARY: Domain Interface 2 Side 1
       Boundary Type = INTERFACE
       Location = FluidSym02
       BOUNDARY CONDITIONS:
         HEAT TRANSFER:
           Option = Conservative Interface Flux
         END
         MASS AND MOMENTUM:
           Option = Conservative Interface Flux
         END
         TURBULENCE:
           Option = Conservative Interface Flux
         END
       END
     END
     BOUNDARY: Inlet
       Boundary Type = INLET
       Location = F447.446
       BOUNDARY CONDITIONS:
         FLOW REGIME:
           Option = Subsonic
         END
         HEAT TRANSFER:
           Option = Static Temperature
           Static Temperature = 273.15 [K]
         END
         MASS AND MOMENTUM:
           Normal Speed = 0.1 [m s^-1]
           Option = Normal Speed
         END
         TURBULENCE:
           Option = Medium Intensity and Eddy Viscosity Ratio
         END
       END
     END
     BOUNDARY: Outlet
       Boundary Type = OUTLET
       Location = F451.446
       BOUNDARY CONDITIONS:
         FLOW REGIME:
           Option = Subsonic
         END
         MASS AND MOMENTUM:
           Normal Speed = 0.1 [m s^-1]
           Option = Normal Speed
         END
       END
     END
     DOMAIN MODELS:
       BUOYANCY MODEL:
         Option = Non Buoyant
       END
       DOMAIN MOTION:
         Option = Stationary
       END
       MESH DEFORMATION:
         Option = None
       END
       REFERENCE PRESSURE:
         Reference Pressure = 1 [atm]
       END
     END
     FLUID DEFINITION: Fluid 1
       Material = Water Glycol Mixture
       Option = Material Library
       MORPHOLOGY:
         Option = Continuous Fluid
       END
     END
     FLUID MODELS:
       COMBUSTION MODEL:
         Option = None
       END
       HEAT TRANSFER MODEL:
         Option = Thermal Energy
       END
       THERMAL RADIATION MODEL:
         Option = None
       END
       TURBULENCE MODEL:
         Option = k epsilon
       END
       TURBULENT WALL FUNCTIONS:
         Option = Scalable
       END
     END
     SOURCE POINT: Origin
       Cartesian Coordinates = 0.0[m],0.0[m],0.0[m]
       Option = Cartesian Coordinates
     END
   END
   DOMAIN: TubeDom
     Coord Frame = Coord 0
     Domain Type = Solid
     Location = B378,B662
     BOUNDARY: Default Fluid Solid Interface Side 2
       Boundary Type = INTERFACE
       Location = \
         F379.378,F380.378,F381.378,F382.378,F383.378,F666.662,F668.662,F670.6\
         62,F672.662,F674.662
       BOUNDARY CONDITIONS:
         HEAT TRANSFER:
           Option = Conservative Interface Flux
         END
       END
     END
     BOUNDARY: Domain Interface 1 Side 1
       Boundary Type = INTERFACE
       Location = TubeIntFace01
       BOUNDARY CONDITIONS:
         HEAT TRANSFER:
           Option = Conservative Interface Flux
         END
       END
     END
     BOUNDARY: Domain Interface 1 Side 2
       Boundary Type = INTERFACE
       Location = TubeIntFace02
       BOUNDARY CONDITIONS:
         HEAT TRANSFER:
           Option = Conservative Interface Flux
         END
       END
     END
     BOUNDARY: Domain Interface 2 Side 2
       Boundary Type = INTERFACE
       Location = TubeSymFace01
       BOUNDARY CONDITIONS:
         HEAT TRANSFER:
           Option = Conservative Interface Flux
         END
       END
     END
     BOUNDARY: SymmetrieSolid Side 1
       Boundary Type = INTERFACE
       Location = TubeSymFace02
       BOUNDARY CONDITIONS:
         HEAT TRANSFER:
           Option = Conservative Interface Flux
         END
       END
     END
     BOUNDARY: TubeDom Default
       Boundary Type = WALL
       Location = \
         F390.378,F391.378,F392.378,F393.378,F394.378,F676.662,F677.662,F678.6\
         62,F679.662,F680.662
       BOUNDARY CONDITIONS:
         HEAT TRANSFER:
           Option = Adiabatic
         END
       END
     END
     BOUNDARY: TubeOuterWallAdia
       Boundary Type = WALL
       Location = TubeOuterWall01
       BOUNDARY CONDITIONS:
         HEAT TRANSFER:
           Option = Adiabatic
         END
       END
     END
     BOUNDARY: TubeOuterWallHeatex
       Boundary Type = WALL
       Location = TubeOuterWall02
       BOUNDARY CONDITIONS:
         HEAT TRANSFER:
           Fixed Temperature = 283.15 [K]
           Option = Fixed Temperature
         END
       END
     END
     DOMAIN MODELS:
       DOMAIN MOTION:
         Option = Stationary
       END
       MESH DEFORMATION:
         Option = None
       END
     END
     SOLID DEFINITION: Solid 1
       Material = PE100RC
       Option = Material Library
       MORPHOLOGY:
         Option = Continuous Solid
       END
     END
     SOLID MODELS:
       HEAT TRANSFER MODEL:
         Option = Thermal Energy
       END
       THERMAL RADIATION MODEL:
         Option = None
       END
     END
   END
   DOMAIN INTERFACE: Default Fluid Solid Interface
     Boundary List1 = Default Fluid Solid Interface Side 1
     Boundary List2 = Default Fluid Solid Interface Side 2
     Interface Type = Fluid Solid
     INTERFACE MODELS:
       Option = General Connection
       FRAME CHANGE:
         Option = None
       END
       PITCH CHANGE:
         Option = None
       END
     END
     MESH CONNECTION:
       Option = Automatic
     END
   END
   DOMAIN INTERFACE: Domain Interface 1
     Boundary List1 = Domain Interface 1 Side 1
     Boundary List2 = Domain Interface 1 Side 2
     Interface Type = Solid Solid
     INTERFACE MODELS:
       Option = General Connection
       FRAME CHANGE:
         Option = None
       END
       PITCH CHANGE:
         Option = None
       END
     END
     MESH CONNECTION:
       Option = Automatic
     END
   END
   DOMAIN INTERFACE: SymmetrieFluid
     Boundary List1 = Domain Interface 1 Side 1 1
     Boundary List2 = Domain Interface 2 Side 1
     Interface Type = Fluid Fluid
     INTERFACE MODELS:
       Option = Rotational Periodicity
       AXIS DEFINITION:
         Option = Coordinate Axis
         Rotation Axis = Coord 0.1
       END
     END
     MESH CONNECTION:
       Option = GGI
       INTERSECTION CONTROL:
         Option = Direct
         Periodic Axial Radial Tolerance = 0.001
       END
     END
   END
   DOMAIN INTERFACE: SymmetrieSolid
     Boundary List1 = Domain Interface 2 Side 2
     Boundary List2 = SymmetrieSolid Side 1
     Interface Type = Solid Solid
     INTERFACE MODELS:
       Option = Rotational Periodicity
       AXIS DEFINITION:
         Option = Coordinate Axis
         Rotation Axis = Coord 0.1
       END
     END
     MESH CONNECTION:
       Option = Automatic
       INTERSECTION CONTROL:
         Option = Direct
         Periodic Axial Radial Tolerance = 0.0001
       END
     END
   END
   OUTPUT CONTROL:
     MONITOR OBJECTS:
       MONITOR BALANCES:
         Option = Full
       END
       MONITOR FORCES:
         Option = Full
       END
       MONITOR PARTICLES:
         Option = Full
       END
       MONITOR POINT: MP1
         Cartesian Coordinates = 2.5 [m], 0 [m], 0 [m]
         Coord Frame = Coord 0
         Option = Cartesian Coordinates
         Output Variables List = Courant Number,Pressure,Temperature,Velocity
         MONITOR LOCATION CONTROL:
           Interpolation Type = Nearest Vertex
         END
         POSITION UPDATE FREQUENCY:
           Option = Initial Mesh Only
         END
       END
       MONITOR POINT: MP2
         Cartesian Coordinates = 2.5 [m], 0.012 [m], 0 [m]
         Coord Frame = Coord 0
         Option = Cartesian Coordinates
         Output Variables List = Courant Number,Pressure,Temperature,Velocity
         MONITOR LOCATION CONTROL:
           Interpolation Type = Nearest Vertex
         END
         POSITION UPDATE FREQUENCY:
           Option = Initial Mesh Only
         END
       END
       MONITOR POINT: MP3
         Cartesian Coordinates = 2.5 [m], 0.024 [m], 0 [m]
         Coord Frame = Coord 0
         Option = Cartesian Coordinates
         Output Variables List = Courant Number,Pressure,Temperature,Velocity
         MONITOR LOCATION CONTROL:
           Interpolation Type = Nearest Vertex
         END
         POSITION UPDATE FREQUENCY:
           Option = Initial Mesh Only
         END
       END
       MONITOR POINT: MP3_1
         Coord Frame = Coord 0
         Expression Value = DeltaT
         Option = Expression
       END
       MONITOR RESIDUALS:
         Option = Full
       END
       MONITOR TOTALS:
         Option = Full
       END
     END
     RESULTS:
       File Compression Level = Default
       Option = Standard
     END
   END
   SOLVER CONTROL:
     Turbulence Numerics = First Order
     ADVECTION SCHEME:
       Option = High Resolution
     END
     CONVERGENCE CONTROL:
       Length Scale Option = Conservative
       Maximum Number of Iterations = 200
       Minimum Number of Iterations = 1
       Solid Timescale Control = Auto Timescale
       Timescale Control = Auto Timescale
       Timescale Factor = 1.0
     END
     CONVERGENCE CRITERIA:
       Residual Target = 0.000001
       Residual Type = RMS
     END
     DYNAMIC MODEL CONTROL:
       Global Dynamic Model Control = On
     END
   END
 END
 COMMAND FILE:
   Version = 16.0
   Results Version = 15.0.7
 END
 SIMULATION CONTROL:
   EXECUTION CONTROL:
     EXECUTABLE SELECTION:
       Double Precision = Off
     END
     PARALLEL HOST LIBRARY:
       HOST DEFINITION: rd000d3a21faed
         Host Architecture String = winnt-amd64
         Installation Root = \\hsransys.file.core.windows.net\main\apps\ANSYS \
           Inc\v%v\CFX
       END
     END
     PARTITIONER STEP CONTROL:
       PARTITIONING TYPE:
         Option = MeTiS
         MeTiS Type = k-way
         Partition Size Rule = Automatic
         Partition Weight Factors = 0.00391, 0.00391, 0.00391, 0.00391, \
           0.00391, 0.00391, 0.00391, 0.00391, 0.00391, 0.00391, 0.00391, \
           0.00391, 0.00391, 0.00391, 0.00391, 0.00391, 0.00391, 0.00391, \
           0.00391, 0.00391, 0.00391, 0.00391, 0.00391, 0.00391, 0.00391, \
           0.00391, 0.00391, 0.00391, 0.00391, 0.00391, 0.00391, 0.00391, \
           0.00391, 0.00391, 0.00391, 0.00391, 0.00391, 0.00391, 0.00391, \
           0.00391, 0.00391, 0.00391, 0.00391, 0.00391, 0.00391, 0.00391, \
           0.00391, 0.00391, 0.00391, 0.00391, 0.00391, 0.00391, 0.00391, \
           0.00391, 0.00391, 0.00391, 0.00391, 0.00391, 0.00391, 0.00391, \
           0.00391, 0.00391, 0.00391, 0.00391, 0.00391, 0.00391, 0.00391, \
           0.00391, 0.00391, 0.00391, 0.00391, 0.00391, 0.00391, 0.00391, \
           0.00391, 0.00391, 0.00391, 0.00391, 0.00391, 0.00391, 0.00391, \
           0.00391, 0.00391, 0.00391, 0.00391, 0.00391, 0.00391, 0.00391, \
           0.00391, 0.00391, 0.00391, 0.00391, 0.00391, 0.00391, 0.00391, \
           0.00391, 0.00391, 0.00391, 0.00391, 0.00391, 0.00391, 0.00391, \
           0.00391, 0.00391, 0.00391, 0.00391, 0.00391, 0.00391, 0.00391, \
           0.00391, 0.00391, 0.00391, 0.00391, 0.00391, 0.00391, 0.00391, \
           0.00391, 0.00391, 0.00391, 0.00391, 0.00391, 0.00391, 0.00391, \
           0.00391, 0.00391, 0.00391, 0.00391, 0.00391, 0.00391, 0.00391, \
           0.00391, 0.00391, 0.00391, 0.00391, 0.00391, 0.00391, 0.00391, \
           0.00391, 0.00391, 0.00391, 0.00391, 0.00391, 0.00391, 0.00391, \
           0.00391, 0.00391, 0.00391, 0.00391, 0.00391, 0.00391, 0.00391, \
           0.00391, 0.00391, 0.00391, 0.00391, 0.00391, 0.00391, 0.00391, \
           0.00391, 0.00391, 0.00391, 0.00391, 0.00391, 0.00391, 0.00391, \
           0.00391, 0.00391, 0.00391, 0.00391, 0.00391, 0.00391, 0.00391, \
           0.00391, 0.00391, 0.00391, 0.00391, 0.00391, 0.00391, 0.00391, \
           0.00391, 0.00391, 0.00391, 0.00391, 0.00391, 0.00391, 0.00391, \
           0.00391, 0.00391, 0.00391, 0.00391, 0.00391, 0.00391, 0.00391, \
           0.00391, 0.00391, 0.00391, 0.00391, 0.00391, 0.00391, 0.00391, \
           0.00391, 0.00391, 0.00391, 0.00391, 0.00391, 0.00391, 0.00391, \
           0.00391, 0.00391, 0.00391, 0.00391, 0.00391, 0.00391, 0.00391, \
           0.00391, 0.00391, 0.00391, 0.00391, 0.00391, 0.00391, 0.00391, \
           0.00391, 0.00391, 0.00391, 0.00391, 0.00391, 0.00391, 0.00391, \
           0.00391, 0.00391, 0.00391, 0.00391, 0.00391, 0.00391, 0.00391, \
           0.00391, 0.00391, 0.00391, 0.00391, 0.00391, 0.00391, 0.00391, \
           0.00391, 0.00391, 0.00391, 0.00391, 0.00391, 0.00391, 0.00391, \
           0.00391, 0.00391, 0.00391, 0.00391, 0.00391, 0.00391, 0.00391
       END
     END
     RUN DEFINITION:
       Solver Input File = \
         \\10.10.13.6\C\Resources\directory\3301acebc8f4463d990a819988261bb5.H\
         SR.AzureEE.HpcWorkerRole.jobdata\job-2\pipe08.def
       Run Mode = Full
     END
     SOLVER STEP CONTROL:
       PARALLEL ENVIRONMENT:
         Start Method = MSMPI2
         Number of Processes = 256
         Parallel Host List = rd000d3a21faed*256
       END
     END
   END
 END
 

 +--------------------------------------------------------------------+
 |                                                                    |
 |                            Partitioning                            |
 |                                                                    |
 +--------------------------------------------------------------------+




 +--------------------------------------------------------------------+
 |                                                                    |
 |                 ANSYS(R) CFX(R) Partitioner 15.0.7                 |
 |                                                                    |
 | Version 2014.04.10-23.00-131675     Thu Apr 10 23:23:37 GMTDT 2014 |
 |                                                                    |
 |                        Executable Attributes                       |
 |                                                                    |
 |          single-64bit-int32-supfort-optimised-noprof-lcomp         |
 |                                                                    |
 | (C) 2014 ANSYS, Inc.                                               |
 |                                                                    |
 | All rights reserved. Unauthorized use, distribution or duplication |
 | is prohibited. This product is subject to U.S. laws governing      |
 | export and re-export. For full Legal Notice, see documentation.    |
 +--------------------------------------------------------------------+




 +--------------------------------------------------------------------+
 |                  Job Information at Start of Run                   |
 +--------------------------------------------------------------------+

 Run mode:       partitioning run

 +------------------------------+------+--------+----------+----------+
 | Host                         | Mesh |  PID   |     Job Started     |
 |                              | Part |        | DD/MM/YY | hh:mm:ss |
 +------------------------------+------+--------+----------+----------+
 | RD000D3A21FAED               |    1 |   2872 | 29/05/15 | 06:22:47 |
 +------------------------------+------+--------+----------+----------+


 +--------------------------------------------------------------------+
 |        Memory Allocated for Run  (Actual usage may be less)        |
 +--------------------------------------------------------------------+

           | Real       | Integer    | Character | Logical  | Double
 ----------+------------+------------+-----------+----------+----------
 Mwords    |     265.00 |     750.93 |      3.39 |     0.12 |     1.20
 Mbytes    |    1010.89 |    2864.58 |      3.24 |     0.46 |     9.16
 ----------+------------+------------+-----------+----------+----------


 +--------------------------------------------------------------------+
 |                  Host Memory Information (Mbytes)                  |
 +--------------------------------------------------------------------+
 |          Host           |     System     |   Allocated    |   %    |
 +-------------------------+----------------+----------------+--------+
 | RD000D3A21FAED          |     57343.55   |      3888.32   |   6.78 |
 +-------------------------+----------------+----------------+--------+

 +--------------------------------------------------------------------+
 |                          Mesh Statistics                           |
 +--------------------------------------------------------------------+

 Domain Name : FluidDom

     Total Number of Nodes                                =    16008000

     Total Number of Elements                             =    15291451
         Total Number of Prisms                           =       77987
         Total Number of Hexahedrons                      =    15213464

     Total Number of Faces                                =     1498849

 Domain Name : TubeDom

     Total Number of Nodes                                =      149192

     Total Number of Elements                             =      231327
         Total Number of Tetrahedrons                     =      170077
         Total Number of Hexahedrons                      =       61250

     Total Number of Faces                                =      167138
 
 Global Statistics :

     Global Number of Nodes                               =    16157192

     Global Number of Elements                            =    15522778
         Total Number of Tetrahedrons                     =      170077
         Total Number of Prisms                           =       77987
         Total Number of Hexahedrons                      =    15274714

     Global Number of Faces                               =     1665987

 Domain Interface Name : Default Fluid Solid Interface

     Discretization type                                  =         GGI
     Intersection type                                    =      Direct
     Non-overlap area fraction on side 1                  =    9.03E-02
     Non-overlap area fraction on side 2                  =    8.33E-02

 Domain Interface Name : Domain Interface 1

     Discretization type                                  =         GGI
     Intersection type                                    =      Direct
     Non-overlap area fraction on side 1                  =    5.62E-02
     Non-overlap area fraction on side 2                  =    4.41E-02

 Domain Interface Name : SymmetrieFluid

     Discretization type                                  =         GGI
     Intersection type                                    = Topological

 Domain Interface Name : SymmetrieSolid

     Discretization type                                  =         GGI
     Intersection type                                    =      Direct
     Non-overlap area fraction on side 1                  =    6.95E-06
     Non-overlap area fraction on side 2                  =    3.95E-06

 +--------------------------------------------------------------------+
 |                     Vertex Based Partitioning                      |
 +--------------------------------------------------------------------+

 Partitioning of domain: FluidDom

 - Partitioning tool:       MeTiS multilevel k-way algorithm
 - Number of partitions:           256
 - Number of graph-nodes:     16008000
 - Number of graph-edges:     97710664

 Partitioning of domain: TubeDom

 - Partitioning tool:       MeTiS multilevel k-way algorithm
 - Number of partitions:           256
 - Number of graph-nodes:       149192
 - Number of graph-edges:      1146042

 +--------------------------------------------------------------------+
 |                      Partitioning Information                      |
 +--------------------------------------------------------------------+

 Partitioning information for domain: FluidDom

        +------------------+------------------------+-----------------+
        |     Elements     |        Vertices        |     Faces       |
 +------+------------------+------------------------+-----------------+
 | Part |   Number     %   |   Number     %   %Ovlp |  Number     %   |
 +------+------------------+------------------------+-----------------+
 | Full |  15291451        |  16008000              |  1498849        |
 +------+------------------+------------------------+-----------------+
 |    1 |     67058    0.4 |     77311    0.4  18.5 |     9738    0.5 |
 |    2 |     67952    0.4 |     77311    0.4  16.7 |     9385    0.4 |
 |    3 |     62118    0.4 |     71969    0.4  17.2 |    10725    0.5 |
 |    4 |     69628    0.4 |     78791    0.4  16.9 |     8518    0.4 |
 |    5 |     68624    0.4 |     77862    0.4  16.5 |     9102    0.4 |
 |    6 |     69128    0.4 |     78572    0.4  17.0 |     8970    0.4 |
 |    7 |     61491    0.4 |     71969    0.4  18.1 |    11347    0.5 |
 |    8 |     64594    0.4 |     74626    0.4  18.7 |     9606    0.4 |
 |    9 |     64725    0.4 |     74505    0.4  18.0 |     9572    0.4 |
 |   10 |     61464    0.4 |     71491    0.4  17.3 |    11000    0.5 |
 |   11 |     67276    0.4 |     76421    0.4  16.7 |     8959    0.4 |
 |   12 |     68709    0.4 |     77975    0.4  16.8 |     8881    0.4 |
 |   13 |     68071    0.4 |     77592    0.4  16.7 |     9443    0.4 |
 |   14 |     65330    0.4 |     75410    0.4  19.1 |     9346    0.4 |
 |   15 |     67740    0.4 |     76921    0.4  16.9 |     8842    0.4 |
 |   16 |     63006    0.4 |     72791    0.4  17.6 |    10229    0.5 |
 |   17 |     62335    0.4 |     72430    0.4  17.6 |    10914    0.5 |
 |   18 |     68793    0.4 |     77885    0.4  16.4 |     8912    0.4 |
 |   19 |     64720    0.4 |     74574    0.4  18.4 |     9375    0.4 |
 |   20 |     68445    0.4 |     77824    0.4  16.7 |     9286    0.4 |
 |   21 |     66708    0.4 |     73186    0.4  10.9 |     6001    0.3 |
 |   22 |     66614    0.4 |     75676    0.4  16.9 |     8697    0.4 |
 |   23 |     57997    0.3 |     65455    0.3  10.5 |     9023    0.4 |
 |   24 |     64633    0.4 |     71968    0.4  11.4 |     7341    0.3 |
 |   25 |     66785    0.4 |     77386    0.4  19.0 |    10260    0.5 |
 |   26 |     66561    0.4 |     76821    0.4  17.5 |    10651    0.5 |
 |   27 |     65006    0.4 |     74334    0.4  17.6 |     9089    0.4 |
 |   28 |     65345    0.4 |     74441    0.4  17.4 |     8714    0.4 |
 |   29 |     68180    0.4 |     77555    0.4  17.4 |     8784    0.4 |
 |   30 |     66381    0.4 |     76283    0.4  16.8 |    10450    0.5 |
 |   31 |     65529    0.4 |     74874    0.4  17.2 |     9311    0.4 |
 |   32 |     65062    0.4 |     75418    0.4  19.1 |     9939    0.5 |
 |   33 |     64635    0.4 |     73921    0.4  17.5 |     9115    0.4 |
 |   34 |     65640    0.4 |     75609    0.4  19.1 |     9121    0.4 |
 |   35 |     68593    0.4 |     78134    0.4  17.2 |     9047    0.4 |
 |   36 |     64542    0.4 |     75146    0.4  17.7 |    11500    0.5 |
 |   37 |     68291    0.4 |     77457    0.4  16.6 |     9037    0.4 |
 |   38 |     65575    0.4 |     74588    0.4  17.4 |     8597    0.4 |
 |   39 |     66585    0.4 |     76868    0.4  17.4 |    10636    0.5 |
 |   40 |     65962    0.4 |     76371    0.4  17.6 |    10873    0.5 |
 |   41 |     63086    0.4 |     73030    0.4  17.9 |    10203    0.5 |
 |   42 |     67293    0.4 |     76377    0.4  16.5 |     8998    0.4 |
 |   43 |     67459    0.4 |     76774    0.4  16.9 |     9163    0.4 |
 |   44 |     66425    0.4 |     76457    0.4  17.5 |    10159    0.5 |
 |   45 |     65491    0.4 |     74901    0.4  17.3 |     9185    0.4 |
 |   46 |     70269    0.4 |     79964    0.4  18.3 |     8396    0.4 |
 |   47 |     69641    0.4 |     79839    0.4  19.4 |     8530    0.4 |
 |   48 |     59475    0.4 |     70176    0.4  17.6 |    12498    0.6 |
 |   49 |     60972    0.4 |     71056    0.4  17.2 |    11290    0.5 |
 |   50 |     69415    0.4 |     78791    0.4  17.2 |     8761    0.4 |
 |   51 |     65802    0.4 |     74657    0.4  16.6 |     8720    0.4 |
 |   52 |     64295    0.4 |     74158    0.4  17.6 |    10064    0.5 |
 |   53 |     65930    0.4 |     75181    0.4  17.3 |     8870    0.4 |
 |   54 |     69849    0.4 |     79980    0.4  18.6 |     8920    0.4 |
 |   55 |     69361    0.4 |     79082    0.4  18.2 |     8662    0.4 |
 |   56 |     60545    0.4 |     71242    0.4  17.5 |    12363    0.6 |
 |   57 |     68180    0.4 |     77479    0.4  17.0 |     8947    0.4 |
 |   58 |     65325    0.4 |     75455    0.4  17.4 |    10644    0.5 |
 |   59 |     63959    0.4 |     73935    0.4  18.3 |     9902    0.5 |
 |   60 |     65321    0.4 |     74599    0.4  17.7 |     8803    0.4 |
 |   61 |     67662    0.4 |     77671    0.4  17.5 |     9931    0.5 |
 |   62 |     69530    0.4 |     79216    0.4  18.9 |     7925    0.4 |
 |   63 |     68676    0.4 |     77779    0.4  16.4 |     8878    0.4 |
 |   64 |     61876    0.4 |     72401    0.4  18.0 |    11417    0.5 |
 |   65 |     64149    0.4 |     74149    0.4  17.5 |    10584    0.5 |
 |   66 |     66678    0.4 |     75841    0.4  16.9 |     9032    0.4 |
 |   67 |     68046    0.4 |     77587    0.4  16.8 |     9406    0.4 |
 |   68 |     64791    0.4 |     74904    0.4  18.8 |     9669    0.4 |
 |   69 |     68871    0.4 |     78026    0.4  16.7 |     8914    0.4 |
 |   70 |     63036    0.4 |     73243    0.4  18.1 |    10721    0.5 |
 |   71 |     66193    0.4 |     76404    0.4  19.7 |     9063    0.4 |
 |   72 |     66189    0.4 |     75650    0.4  17.1 |     9325    0.4 |
 |   73 |     64152    0.4 |     74694    0.4  19.2 |    10264    0.5 |
 |   74 |     65597    0.4 |     75896    0.4  17.7 |    10829    0.5 |
 |   75 |     66216    0.4 |     75206    0.4  17.0 |     8655    0.4 |
 |   76 |     68953    0.4 |     78611    0.4  17.4 |     9150    0.4 |
 |   77 |     63791    0.4 |     73431    0.4  16.8 |    10236    0.5 |
 |   78 |     64316    0.4 |     74307    0.4  17.1 |    10677    0.5 |
 |   79 |     69230    0.4 |     78763    0.4  17.5 |     8999    0.4 |
 |   80 |     65040    0.4 |     74097    0.4  17.0 |     8957    0.4 |
 |   81 |     69387    0.4 |     78846    0.4  17.2 |     8828    0.4 |
 |   82 |     62148    0.4 |     72641    0.4  18.5 |    11111    0.5 |
 |   83 |     66216    0.4 |     75846    0.4  17.4 |     9462    0.4 |
 |   84 |     67766    0.4 |     77950    0.4  20.2 |     8232    0.4 |
 |   85 |     69264    0.4 |     78823    0.4  17.8 |     8662    0.4 |
 |   86 |     60227    0.4 |     70710    0.4  17.0 |    12332    0.6 |
 |   87 |     71377    0.4 |     80915    0.4  18.9 |     7409    0.3 |
 |   88 |     64139    0.4 |     74257    0.4  17.8 |    10231    0.5 |
 |   89 |     62373    0.4 |     72535    0.4  18.0 |    10746    0.5 |
 |   90 |     68463    0.4 |     77613    0.4  16.3 |     9047    0.4 |
 |   91 |     66348    0.4 |     76498    0.4  18.0 |     9945    0.5 |
 |   92 |     70159    0.4 |     79878    0.4  19.0 |     7920    0.4 |
 |   93 |     64333    0.4 |     74268    0.4  18.3 |     9746    0.5 |
 |   94 |     60452    0.4 |     70785    0.4  17.4 |    11759    0.5 |
 |   95 |     69829    0.4 |     79557    0.4  17.9 |     8859    0.4 |
 |   96 |     68031    0.4 |     77239    0.4  16.3 |     9348    0.4 |
 |   97 |     63132    0.4 |     71175    0.4  12.1 |     8873    0.4 |
 |   98 |     61103    0.4 |     69300    0.4  13.1 |     8981    0.4 |
 |   99 |     66552    0.4 |     73476    0.4  11.7 |     6689    0.3 |
 |  100 |     65592    0.4 |     73211    0.4  13.8 |     7273    0.3 |
 |  101 |     65392    0.4 |     72593    0.4  10.2 |     8774    0.4 |
 |  102 |     60285    0.4 |     67944    0.4  10.1 |     9584    0.4 |
 |  103 |     62584    0.4 |     69389    0.4  11.9 |     6659    0.3 |
 |  104 |     66532    0.4 |     74550    0.4  15.1 |     6715    0.3 |
 |  105 |     66376    0.4 |     73501    0.4  12.0 |     6953    0.3 |
 |  106 |     62762    0.4 |     71134    0.4  14.9 |     8215    0.4 |
 |  107 |     61579    0.4 |     69004    0.4  12.5 |     7448    0.3 |
 |  108 |     64024    0.4 |     71417    0.4  12.9 |     7330    0.3 |
 |  109 |     61658    0.4 |     69720    0.4  13.5 |     8383    0.4 |
 |  110 |     64972    0.4 |     72121    0.4  12.3 |     7151    0.3 |
 |  111 |     66545    0.4 |     73250    0.4  11.4 |     6571    0.3 |
 |  112 |     61024    0.4 |     69162    0.4  13.6 |     8739    0.4 |
 |  113 |     65676    0.4 |     75785    0.4  17.9 |    10160    0.5 |
 |  114 |     64650    0.4 |     75164    0.4  16.9 |    11719    0.5 |
 |  115 |     67350    0.4 |     76813    0.4  17.6 |     8876    0.4 |
 |  116 |     65868    0.4 |     74924    0.4  17.1 |     8828    0.4 |
 |  117 |     57988    0.3 |     66475    0.4  12.6 |    10301    0.5 |
 |  118 |     69243    0.4 |     77218    0.4  14.7 |     6370    0.3 |
 |  119 |     65705    0.4 |     73671    0.4  13.0 |     7886    0.4 |
 |  120 |     68400    0.4 |     78171    0.4  19.6 |     7624    0.4 |
 |  121 |     66581    0.4 |     74562    0.4  14.0 |     7420    0.3 |
 |  122 |     62676    0.4 |     69962    0.4  12.2 |     7306    0.3 |
 |  123 |     60879    0.4 |     68873    0.4  12.9 |     8697    0.4 |
 |  124 |     63745    0.4 |     70752    0.4  12.4 |     6791    0.3 |
 |  125 |     62032    0.4 |     71078    0.4  13.0 |    10764    0.5 |
 |  126 |     67173    0.4 |     74299    0.4  12.8 |     6221    0.3 |
 |  127 |     66719    0.4 |     73683    0.4  11.7 |     6777    0.3 |
 |  128 |     66519    0.4 |     74309    0.4  14.3 |     7075    0.3 |
 |  129 |     66845    0.4 |     74688    0.4  13.3 |     7873    0.4 |
 |  130 |     63258    0.4 |     71122    0.4  13.8 |     7443    0.3 |
 |  131 |     65157    0.4 |     72390    0.4  12.6 |     7056    0.3 |
 |  132 |     62760    0.4 |     70297    0.4  12.2 |     7784    0.4 |
 |  133 |     62833    0.4 |     70600    0.4  13.8 |     7322    0.3 |
 |  134 |     66494    0.4 |     74011    0.4  12.4 |     7518    0.3 |
 |  135 |     63509    0.4 |     70434    0.4  12.1 |     6826    0.3 |
 |  136 |     63341    0.4 |     71800    0.4  12.6 |     9550    0.4 |
 |  137 |     67620    0.4 |     74403    0.4  11.8 |     6281    0.3 |
 |  138 |     65877    0.4 |     73263    0.4  12.5 |     7221    0.3 |
 |  139 |     64554    0.4 |     72785    0.4  13.6 |     8055    0.4 |
 |  140 |     58757    0.4 |     67622    0.4  13.6 |    10451    0.5 |
 |  141 |     65816    0.4 |     73211    0.4  12.9 |     7248    0.3 |
 |  142 |     63733    0.4 |     70754    0.4  12.2 |     6763    0.3 |
 |  143 |     63252    0.4 |     71693    0.4  14.1 |     8808    0.4 |
 |  144 |     63087    0.4 |     70595    0.4  13.5 |     6923    0.3 |
 |  145 |     66229    0.4 |     73717    0.4  12.8 |     7379    0.3 |
 |  146 |     61748    0.4 |     69666    0.4  13.4 |     7980    0.4 |
 |  147 |     59836    0.4 |     67695    0.4  12.4 |     8815    0.4 |
 |  148 |     68036    0.4 |     75499    0.4  13.2 |     6755    0.3 |
 |  149 |     62079    0.4 |     69655    0.4  13.1 |     7428    0.3 |
 |  150 |     62578    0.4 |     70172    0.4  11.1 |     8597    0.4 |
 |  151 |     63147    0.4 |     69592    0.4  10.6 |     6478    0.3 |
 |  152 |     66118    0.4 |     73369    0.4  12.2 |     7157    0.3 |
 |  153 |     65830    0.4 |     73177    0.4  13.5 |     6780    0.3 |
 |  154 |     64337    0.4 |     73003    0.4  14.7 |     8761    0.4 |
 |  155 |     67398    0.4 |     74705    0.4  12.6 |     6713    0.3 |
 |  156 |     60693    0.4 |     68444    0.4  11.8 |     8633    0.4 |
 |  157 |     66598    0.4 |     73651    0.4  11.9 |     7002    0.3 |
 |  158 |     61941    0.4 |     70111    0.4  14.0 |     8074    0.4 |
 |  159 |     66941    0.4 |     74323    0.4  12.5 |     7141    0.3 |
 |  160 |     62264    0.4 |     70378    0.4  14.1 |     7870    0.4 |
 |  161 |     65289    0.4 |     72629    0.4  12.7 |     7203    0.3 |
 |  162 |     61997    0.4 |     70175    0.4  14.1 |     8193    0.4 |
 |  163 |     67830    0.4 |     74940    0.4  12.5 |     6442    0.3 |
 |  164 |     62032    0.4 |     70495    0.4  12.5 |     9772    0.5 |
 |  165 |     64651    0.4 |     72463    0.4  14.8 |     6790    0.3 |
 |  166 |     65774    0.4 |     72966    0.4  11.5 |     7303    0.3 |
 |  167 |     66269    0.4 |     73196    0.4  11.4 |     6924    0.3 |
 |  168 |     62465    0.4 |     71703    0.4  16.3 |     8804    0.4 |
 |  169 |     63042    0.4 |     70857    0.4  12.9 |     7907    0.4 |
 |  170 |     61356    0.4 |     69798    0.4  14.1 |     8989    0.4 |
 |  171 |     65065    0.4 |     71844    0.4  11.5 |     6589    0.3 |
 |  172 |     65147    0.4 |     72621    0.4  12.8 |     7479    0.3 |
 |  173 |     63021    0.4 |     70360    0.4  12.9 |     7335    0.3 |
 |  174 |     65958    0.4 |     74130    0.4  14.1 |     7381    0.3 |
 |  175 |     61526    0.4 |     69782    0.4  14.0 |     8837    0.4 |
 |  176 |     67187    0.4 |     74563    0.4  12.6 |     6864    0.3 |
 |  177 |     66381    0.4 |     73679    0.4  14.3 |     5663    0.3 |
 |  178 |     64565    0.4 |     72632    0.4  13.6 |     8107    0.4 |
 |  179 |     67044    0.4 |     74110    0.4  12.0 |     6840    0.3 |
 |  180 |     61701    0.4 |     69920    0.4  12.6 |     9303    0.4 |
 |  181 |     66649    0.4 |     73988    0.4  13.4 |     6764    0.3 |
 |  182 |     62022    0.4 |     70323    0.4  12.6 |     9078    0.4 |
 |  183 |     66351    0.4 |     74424    0.4  15.3 |     6484    0.3 |
 |  184 |     63727    0.4 |     71005    0.4  12.1 |     7362    0.3 |
 |  185 |     65987    0.4 |     73968    0.4  15.8 |     6427    0.3 |
 |  186 |     65202    0.4 |     72553    0.4  12.2 |     6978    0.3 |
 |  187 |     64243    0.4 |     71089    0.4   9.8 |     8099    0.4 |
 |  188 |     58682    0.4 |     67757    0.4  12.2 |    11632    0.5 |
 |  189 |     66466    0.4 |     73984    0.4  13.4 |     6805    0.3 |
 |  190 |     63859    0.4 |     70974    0.4  12.6 |     6882    0.3 |
 |  191 |     61586    0.4 |     69658    0.4  12.0 |     9235    0.4 |
 |  192 |     62848    0.4 |     71886    0.4  15.3 |     9057    0.4 |
 |  193 |     66278    0.4 |     73004    0.4  11.4 |     6553    0.3 |
 |  194 |     61023    0.4 |     69383    0.4  13.5 |     9150    0.4 |
 |  195 |     66368    0.4 |     73886    0.4  12.6 |     7605    0.4 |
 |  196 |     61174    0.4 |     68762    0.4  12.4 |     8130    0.4 |
 |  197 |     61688    0.4 |     70149    0.4  13.2 |     9320    0.4 |
 |  198 |     65290    0.4 |     72222    0.4  12.0 |     6776    0.3 |
 |  199 |     65249    0.4 |     72688    0.4  14.4 |     5853    0.3 |
 |  200 |     65946    0.4 |     73955    0.4  13.5 |     7942    0.4 |
 |  201 |     64221    0.4 |     72076    0.4  13.6 |     7713    0.4 |
 |  202 |     63431    0.4 |     71459    0.4  14.3 |     7467    0.3 |
 |  203 |     66055    0.4 |     74191    0.4  13.9 |     7867    0.4 |
 |  204 |     62918    0.4 |     69527    0.4  11.6 |     6524    0.3 |
 |  205 |     62624    0.4 |     70327    0.4  12.1 |     8165    0.4 |
 |  206 |     67192    0.4 |     75034    0.4  13.8 |     7543    0.3 |
 |  207 |     63082    0.4 |     71431    0.4  12.4 |     9542    0.4 |
 |  208 |     63521    0.4 |     70298    0.4  11.8 |     6642    0.3 |
 |  209 |     66726    0.4 |     74085    0.4  12.4 |     7314    0.3 |
 |  210 |     61186    0.4 |     69248    0.4  13.5 |     8315    0.4 |
 |  211 |     66876    0.4 |     74219    0.4  12.4 |     7398    0.3 |
 |  212 |     61197    0.4 |     68654    0.4  12.3 |     7882    0.4 |
 |  213 |     64069    0.4 |     72332    0.4  13.3 |     8752    0.4 |
 |  214 |     63618    0.4 |     70381    0.4  11.9 |     6675    0.3 |
 |  215 |     63491    0.4 |     70728    0.4  13.0 |     7174    0.3 |
 |  216 |     65425    0.4 |     72997    0.4  12.2 |     7618    0.4 |
 |  217 |     63094    0.4 |     69743    0.4  11.6 |     6569    0.3 |
 |  218 |     65017    0.4 |     73100    0.4  12.8 |     8473    0.4 |
 |  219 |     66133    0.4 |     72939    0.4  11.1 |     6792    0.3 |
 |  220 |     62298    0.4 |     70874    0.4  14.9 |     8561    0.4 |
 |  221 |     67455    0.4 |     74193    0.4  11.6 |     6112    0.3 |
 |  222 |     59450    0.4 |     68276    0.4  13.7 |    10480    0.5 |
 |  223 |     62046    0.4 |     70361    0.4  14.3 |     8225    0.4 |
 |  224 |     67012    0.4 |     73910    0.4  13.6 |     5150    0.2 |
 |  225 |     60944    0.4 |     68823    0.4  13.1 |     8400    0.4 |
 |  226 |     66819    0.4 |     74324    0.4  12.7 |     7654    0.4 |
 |  227 |     62219    0.4 |     69974    0.4  12.7 |     8178    0.4 |
 |  228 |     64853    0.4 |     71853    0.4  12.2 |     6822    0.3 |
 |  229 |     62047    0.4 |     70511    0.4  14.5 |     8726    0.4 |
 |  230 |     66589    0.4 |     73408    0.4  11.2 |     6727    0.3 |
 |  231 |     65383    0.4 |     73043    0.4  13.1 |     7491    0.3 |
 |  232 |     63644    0.4 |     71619    0.4  14.7 |     6904    0.3 |
 |  233 |     67281    0.4 |     74969    0.4  13.3 |     7434    0.3 |
 |  234 |     66183    0.4 |     73203    0.4  12.0 |     6683    0.3 |
 |  235 |     64573    0.4 |     73333    0.4  14.2 |     9091    0.4 |
 |  236 |     59779    0.4 |     67155    0.4  11.3 |     8337    0.4 |
 |  237 |     62860    0.4 |     70661    0.4  12.6 |     8292    0.4 |
 |  238 |     67182    0.4 |     74601    0.4  12.7 |     7204    0.3 |
 |  239 |     62861    0.4 |     71098    0.4  13.6 |     8463    0.4 |
 |  240 |     63553    0.4 |     70568    0.4  12.4 |     6923    0.3 |
 |  241 |     61503    0.4 |     70425    0.4  12.6 |    10698    0.5 |
 |  242 |     64941    0.4 |     72379    0.4  13.7 |     6531    0.3 |
 |  243 |     68555    0.4 |     76052    0.4  13.6 |     6438    0.3 |
 |  244 |     64118    0.4 |     71145    0.4  12.2 |     6766    0.3 |
 |  245 |     66394    0.4 |     74416    0.4  16.0 |     5967    0.3 |
 |  246 |     61275    0.4 |     70209    0.4  13.3 |    10193    0.5 |
 |  247 |     66390    0.4 |     73416    0.4  11.7 |     6899    0.3 |
 |  248 |     62338    0.4 |     70123    0.4  13.5 |     7886    0.4 |
 |  249 |     61776    0.4 |     69341    0.4  12.3 |     7855    0.4 |
 |  250 |     67780    0.4 |     75779    0.4  14.3 |     7535    0.3 |
 |  251 |     61193    0.4 |     68755    0.4  12.4 |     7800    0.4 |
 |  252 |     64757    0.4 |     71823    0.4  12.1 |     7119    0.3 |
 |  253 |     61488    0.4 |     69379    0.4  12.4 |     8612    0.4 |
 |  254 |     65467    0.4 |     73928    0.4  13.8 |     8865    0.4 |
 |  255 |     65421    0.4 |     73094    0.4  13.0 |     7753    0.4 |
 |  256 |     65492    0.4 |     72017    0.4  11.5 |     6086    0.3 |
 +------+------------------+------------------------+-----------------+
 | Min  |     57988    0.3 |     65455    0.3  10.5 |     5150    0.2 |
 |(part)|           (  117)|           (   23    23)|          (  224)|
 +------+------------------+------------------------+-----------------+
 | Max  |     71377    0.4 |     80915    0.4  19.4 |    12498    0.6 |
 |(part)|           (   87)|           (   87    84)|          (   48)|
 +------+------------------+------------------------+-----------------+
 | Ave  |     64899    0.4 |     73355    0.4  14.8 |     8428    0.4 |
 +------+------------------+------------------------+-----------------+
 | Sum  |  16614143  100.0 |  18778930  100.0  14.8 |  2157663  100.0 |
 +------+------------------+------------------------+-----------------+

 Partitioning information for domain: TubeDom

        +------------------+------------------------+-----------------+
        |     Elements     |        Vertices        |     Faces       |
 +------+------------------+------------------------+-----------------+
 | Part |   Number     %   |   Number     %   %Ovlp |  Number     %   |
 +------+------------------+------------------------+-----------------+
 | Full |    231327        |    149192              |   167138        |
 +------+------------------+------------------------+-----------------+
 |    1 |      1834    0.4 |       657    0.2  14.5 |     1171    0.4 |
 |    2 |      4065    0.9 |      1488    0.4  63.3 |     1952    0.7 |
 |    3 |      1730    0.4 |       622    0.2  15.3 |     1102    0.4 |
 |    4 |      3522    0.7 |      1282    0.4  57.4 |     1732    0.6 |
 |    5 |      4102    0.9 |      1498    0.4  65.0 |     1926    0.7 |
 |    6 |      3575    0.8 |      1308    0.4  58.0 |     1766    0.6 |
 |    7 |      1809    0.4 |       646    0.2  15.8 |     1131    0.4 |
 |    8 |      1789    0.4 |       635    0.2  14.5 |     1125    0.4 |
 |    9 |      1753    0.4 |       634    0.2  16.7 |     1112    0.4 |
 |   10 |      1739    0.4 |       627    0.2  15.3 |     1113    0.4 |
 |   11 |      4087    0.9 |      1478    0.4  62.6 |     1909    0.7 |
 |   12 |      3576    0.8 |      1312    0.4  59.2 |     1766    0.6 |
 |   13 |      4219    0.9 |      1528    0.4  65.2 |     1986    0.7 |
 |   14 |      1846    0.4 |       656    0.2  14.8 |     1153    0.4 |
 |   15 |      3675    0.8 |      1353    0.4  59.8 |     1825    0.6 |
 |   16 |      1803    0.4 |       645    0.2  14.3 |     1148    0.4 |
 |   17 |      1841    0.4 |       662    0.2  15.4 |     1170    0.4 |
 |   18 |      3754    0.8 |      1366    0.4  60.5 |     1814    0.6 |
 |   19 |      1791    0.4 |       641    0.2  15.9 |     1121    0.4 |
 |   20 |      4221    0.9 |      1531    0.5  64.7 |     1989    0.7 |
 |   21 |      4505    1.0 |      1329    0.4  50.1 |     1326    0.5 |
 |   22 |      3606    0.8 |      1314    0.4  59.5 |     1743    0.6 |
 |   23 |      2709    0.6 |       744    0.2  17.7 |      815    0.3 |
 |   24 |      3181    0.7 |       812    0.2  12.6 |      844    0.3 |
 |   25 |      1780    0.4 |       648    0.2  15.6 |     1152    0.4 |
 |   26 |      1860    0.4 |       660    0.2  15.0 |     1154    0.4 |
 |   27 |      4162    0.9 |      1505    0.4  63.5 |     1962    0.7 |
 |   28 |      3646    0.8 |      1344    0.4  59.7 |     1820    0.6 |
 |   29 |      3440    0.7 |      1261    0.4  57.2 |     1718    0.6 |
 |   30 |      1780    0.4 |       636    0.2  14.6 |     1126    0.4 |
 |   31 |      4170    0.9 |      1517    0.4  63.0 |     2001    0.7 |
 |   32 |      1818    0.4 |       651    0.2  14.6 |     1152    0.4 |
 |   33 |      2656    0.6 |      2560    0.8  78.9 |     2056    0.7 |
 |   34 |      1823    0.4 |       643    0.2  14.5 |     1135    0.4 |
 |   35 |      2493    0.5 |      2273    0.7  76.6 |     1898    0.7 |
 |   36 |      1810    0.4 |       654    0.2  14.7 |     1181    0.4 |
 |   37 |      3312    0.7 |      2192    0.6  74.5 |     2108    0.7 |
 |   38 |      3622    0.8 |      1331    0.4  58.2 |     1824    0.6 |
 |   39 |      1787    0.4 |       644    0.2  15.4 |     1136    0.4 |
 |   40 |      1882    0.4 |       658    0.2  14.0 |     1155    0.4 |
 |   41 |      1762    0.4 |       631    0.2  16.3 |     1101    0.4 |
 |   42 |      3820    0.8 |      1396    0.4  62.0 |     1843    0.6 |
 |   43 |      3993    0.8 |      1454    0.4  61.6 |     1933    0.7 |
 |   44 |      1855    0.4 |       648    0.2  15.0 |     1130    0.4 |
 |   45 |      4201    0.9 |      1526    0.4  65.1 |     1951    0.7 |
 |   46 |      2918    0.6 |      1077    0.3  49.7 |     1528    0.5 |
 |   47 |      2423    0.5 |       925    0.3  42.5 |     1408    0.5 |
 |   48 |      1766    0.4 |       629    0.2  15.1 |     1114    0.4 |
 |   49 |      1786    0.4 |       634    0.2  16.2 |     1102    0.4 |
 |   50 |      2421    0.5 |      2060    0.6  74.0 |     1798    0.6 |
 |   51 |      2581    0.5 |      2364    0.7  77.6 |     1921    0.7 |
 |   52 |      1734    0.4 |       631    0.2  16.5 |     1118    0.4 |
 |   53 |      2587    0.5 |      2418    0.7  77.8 |     1977    0.7 |
 |   54 |      2410    0.5 |      1913    0.6  71.5 |     1709    0.6 |
 |   55 |      2329    0.5 |      1741    0.5  67.8 |     1656    0.6 |
 |   56 |      1827    0.4 |       643    0.2  15.1 |     1121    0.4 |
 |   57 |      2603    0.6 |      2247    0.7  75.3 |     1892    0.7 |
 |   58 |      1911    0.4 |       665    0.2  15.2 |     1150    0.4 |
 |   59 |      1798    0.4 |       637    0.2  15.5 |     1109    0.4 |
 |   60 |      2617    0.6 |      2413    0.7  77.2 |     1988    0.7 |
 |   61 |      2955    0.6 |      3087    0.9  82.1 |     2341    0.8 |
 |   62 |      1791    0.4 |       637    0.2  15.5 |     1106    0.4 |
 |   63 |      2611    0.6 |      2480    0.7  78.4 |     2000    0.7 |
 |   64 |      1781    0.4 |       637    0.2  15.2 |     1127    0.4 |
 |   65 |      1807    0.4 |       643    0.2  15.4 |     1122    0.4 |
 |   66 |      2605    0.6 |      2335    0.7  76.2 |     1954    0.7 |
 |   67 |      2805    0.6 |      2812    0.8  80.8 |     2163    0.7 |
 |   68 |      1773    0.4 |       635    0.2  15.6 |     1121    0.4 |
 |   69 |      2582    0.5 |      2319    0.7  76.2 |     1954    0.7 |
 |   70 |      1797    0.4 |       649    0.2  15.1 |     1161    0.4 |
 |   71 |      1823    0.4 |       647    0.2  15.5 |     1128    0.4 |
 |   72 |      2654    0.6 |      2640    0.8  80.1 |     2078    0.7 |
 |   73 |      1804    0.4 |       651    0.2  16.7 |     1131    0.4 |
 |   74 |      1916    0.4 |       679    0.2  16.5 |     1192    0.4 |
 |   75 |      2645    0.6 |      2443    0.7  77.5 |     2007    0.7 |
 |   76 |      2650    0.6 |      2419    0.7  77.2 |     1986    0.7 |
 |   77 |      1757    0.4 |       628    0.2  15.1 |     1108    0.4 |
 |   78 |      1735    0.4 |       636    0.2  17.5 |     1108    0.4 |
 |   79 |      2604    0.6 |      2330    0.7  76.1 |     1960    0.7 |
 |   80 |      2568    0.5 |      2454    0.7  78.4 |     2002    0.7 |
 |   81 |      2410    0.5 |      2011    0.6  73.0 |     1775    0.6 |
 |   82 |      1848    0.4 |       654    0.2  14.7 |     1146    0.4 |
 |   83 |      2867    0.6 |      2901    0.9  81.0 |     2242    0.8 |
 |   84 |      1746    0.4 |       634    0.2  16.4 |     1123    0.4 |
 |   85 |      2399    0.5 |      1904    0.6  70.7 |     1731    0.6 |
 |   86 |      1816    0.4 |       636    0.2  14.9 |     1107    0.4 |
 |   87 |      1707    0.4 |       622    0.2  15.8 |     1109    0.4 |
 |   88 |      2985    0.6 |      3240    1.0  83.7 |     2383    0.8 |
 |   89 |      1766    0.4 |       632    0.2  15.0 |     1114    0.4 |
 |   90 |      2518    0.5 |      2334    0.7  77.4 |     1923    0.7 |
 |   91 |      2881    0.6 |      3025    0.9  82.0 |     2313    0.8 |
 |   92 |      1809    0.4 |       650    0.2  16.0 |     1142    0.4 |
 |   93 |      1760    0.4 |       623    0.2  14.6 |     1096    0.4 |
 |   94 |      1778    0.4 |       641    0.2  15.6 |     1126    0.4 |
 |   95 |      2381    0.5 |      1911    0.6  71.3 |     1733    0.6 |
 |   96 |      2765    0.6 |      2683    0.8  79.3 |     2131    0.7 |
 |   97 |       480    0.1 |       837    0.2  27.2 |      480    0.2 |
 |   98 |       420    0.1 |       792    0.2  28.9 |      487    0.2 |
 |   99 |      1239    0.3 |      2482    0.7  74.4 |     1271    0.4 |
 |  100 |      1181    0.3 |      2369    0.7  73.5 |     1212    0.4 |
 |  101 |      1225    0.3 |      2568    0.8  78.0 |     1397    0.5 |
 |  102 |       498    0.1 |       867    0.3  27.0 |      498    0.2 |
 |  103 |      1263    0.3 |      2548    0.7  76.5 |     1297    0.4 |
 |  104 |       995    0.2 |      1983    0.6  68.2 |     1012    0.3 |
 |  105 |      1331    0.3 |      2673    0.8  76.3 |     1365    0.5 |
 |  106 |       488    0.1 |       846    0.2  26.2 |      488    0.2 |
 |  107 |       486    0.1 |       855    0.3  28.8 |      486    0.2 |
 |  108 |      1360    0.3 |      2809    0.8  79.5 |     1466    0.5 |
 |  109 |       466    0.1 |       867    0.3  30.1 |      519    0.2 |
 |  110 |      1274    0.3 |      2623    0.8  77.2 |     1358    0.5 |
 |  111 |      1266    0.3 |      2539    0.7  75.5 |     1297    0.4 |
 |  112 |       473    0.1 |       828    0.2  27.8 |      473    0.2 |
 |  113 |      1821    0.4 |       649    0.2  16.2 |     1124    0.4 |
 |  114 |      1791    0.4 |       630    0.2  15.6 |     1092    0.4 |
 |  115 |      2528    0.5 |      2215    0.7  75.3 |     1879    0.6 |
 |  116 |      2633    0.6 |      2441    0.7  77.6 |     1995    0.7 |
 |  117 |       468    0.1 |       804    0.2  24.6 |      468    0.2 |
 |  118 |       784    0.2 |      1627    0.5  64.1 |      852    0.3 |
 |  119 |      1783    0.4 |      3224    0.9  82.7 |     1815    0.6 |
 |  120 |      1731    0.4 |       960    0.3  43.0 |     1206    0.4 |
 |  121 |       420    0.1 |       777    0.2  27.3 |      480    0.2 |
 |  122 |      1551    0.3 |      3119    0.9  80.1 |     1591    0.5 |
 |  123 |       463    0.1 |       846    0.2  31.0 |      498    0.2 |
 |  124 |      1223    0.3 |      2518    0.7  75.9 |     1310    0.5 |
 |  125 |       469    0.1 |       809    0.2  25.2 |      469    0.2 |
 |  126 |      1026    0.2 |      2058    0.6  70.8 |     1047    0.4 |
 |  127 |      1208    0.3 |      2428    0.7  74.7 |     1239    0.4 |
 |  128 |      1095    0.2 |      2184    0.6  70.7 |     1119    0.4 |
 |  129 |      2893    0.6 |      1728    0.5  63.4 |     1328    0.5 |
 |  130 |       478    0.1 |       825    0.2  25.5 |      478    0.2 |
 |  131 |      2319    0.5 |      1521    0.4  61.1 |     1183    0.4 |
 |  132 |       470    0.1 |       810    0.2  25.2 |      470    0.2 |
 |  133 |       478    0.1 |       828    0.2  26.1 |      478    0.2 |
 |  134 |      2774    0.6 |      1701    0.5  62.8 |     1288    0.4 |
 |  135 |      2346    0.5 |      1539    0.5  60.6 |     1144    0.4 |
 |  136 |       426    0.1 |       801    0.2  27.0 |      502    0.2 |
 |  137 |      2101    0.4 |      1424    0.4  57.4 |     1051    0.4 |
 |  138 |      2401    0.5 |      1569    0.5  62.3 |     1199    0.4 |
 |  139 |       476    0.1 |       831    0.2  27.4 |      476    0.2 |
 |  140 |       476    0.1 |       831    0.2  27.4 |      476    0.2 |
 |  141 |      2328    0.5 |      1528    0.4  61.7 |     1194    0.4 |
 |  142 |      2473    0.5 |      1559    0.5  60.0 |     1181    0.4 |
 |  143 |       473    0.1 |       828    0.2  27.8 |      473    0.2 |
 |  144 |       488    0.1 |       855    0.3  28.1 |      488    0.2 |
 |  145 |      2525    0.5 |      1585    0.5  61.2 |     1211    0.4 |
 |  146 |       484    0.1 |       843    0.2  27.0 |      484    0.2 |
 |  147 |       488    0.1 |       849    0.2  26.9 |      488    0.2 |
 |  148 |      2032    0.4 |      1438    0.4  59.5 |     1098    0.4 |
 |  149 |       452    0.1 |       777    0.2  19.3 |      482    0.2 |
 |  150 |       442    0.1 |       771    0.2  21.8 |      472    0.2 |
 |  151 |      2491    0.5 |      1510    0.4  61.7 |     1218    0.4 |
 |  152 |      2567    0.5 |      1603    0.5  64.3 |     1252    0.4 |
 |  153 |      2385    0.5 |      1520    0.4  60.1 |     1137    0.4 |
 |  154 |       494    0.1 |       858    0.3  26.6 |      494    0.2 |
 |  155 |      2282    0.5 |      1502    0.4  59.9 |     1118    0.4 |
 |  156 |       466    0.1 |       804    0.2  25.4 |      466    0.2 |
 |  157 |      2702    0.6 |      1654    0.5  63.4 |     1255    0.4 |
 |  158 |       474    0.1 |       876    0.3  30.8 |      518    0.2 |
 |  159 |      2710    0.6 |      1667    0.5  64.5 |     1308    0.5 |
 |  160 |       468    0.1 |       861    0.3  29.6 |      516    0.2 |
 |  161 |      2663    0.6 |      1651    0.5  61.5 |     1264    0.4 |
 |  162 |       482    0.1 |       840    0.2  27.1 |      482    0.2 |
 |  163 |      2184    0.5 |      1500    0.4  58.1 |     1107    0.4 |
 |  164 |       448    0.1 |       834    0.2  28.2 |      510    0.2 |
 |  165 |       470    0.1 |       816    0.2  26.5 |      470    0.2 |
 |  166 |      2882    0.6 |      1722    0.5  64.1 |     1324    0.5 |
 |  167 |      2912    0.6 |      1775    0.5  64.1 |     1350    0.5 |
 |  168 |       420    0.1 |       828    0.2  33.7 |      497    0.2 |
 |  169 |       504    0.1 |       882    0.3  27.9 |      504    0.2 |
 |  170 |       470    0.1 |       813    0.2  25.8 |      470    0.2 |
 |  171 |      2561    0.5 |      1611    0.5  62.1 |     1217    0.4 |
 |  172 |      2414    0.5 |      1547    0.5  63.0 |     1214    0.4 |
 |  173 |      2869    0.6 |      1724    0.5  65.4 |     1367    0.5 |
 |  174 |       493    0.1 |       881    0.3  29.6 |      516    0.2 |
 |  175 |       507    0.1 |       888    0.3  28.2 |      507    0.2 |
 |  176 |      2161    0.5 |      1485    0.4  57.8 |     1100    0.4 |
 |  177 |       496    0.1 |       870    0.3  28.3 |      496    0.2 |
 |  178 |      3311    0.7 |      1883    0.6  67.2 |     1467    0.5 |
 |  179 |      2329    0.5 |      1568    0.5  61.0 |     1188    0.4 |
 |  180 |       426    0.1 |       792    0.2  28.4 |      486    0.2 |
 |  181 |      2300    0.5 |      1508    0.4  58.6 |     1116    0.4 |
 |  182 |       484    0.1 |       855    0.3  29.5 |      484    0.2 |
 |  183 |       448    0.1 |       819    0.2  28.9 |      492    0.2 |
 |  184 |      2862    0.6 |      1692    0.5  65.2 |     1348    0.5 |
 |  185 |      1167    0.2 |      1112    0.3  46.0 |      737    0.3 |
 |  186 |      2745    0.6 |      1672    0.5  63.2 |     1284    0.4 |
 |  187 |      3523    0.7 |      1990    0.6  69.3 |     1631    0.6 |
 |  188 |       412    0.1 |       804    0.2  29.1 |      508    0.2 |
 |  189 |      2013    0.4 |      1437    0.4  57.9 |     1072    0.4 |
 |  190 |      2496    0.5 |      1592    0.5  62.3 |     1190    0.4 |
 |  191 |       500    0.1 |       873    0.3  27.5 |      500    0.2 |
 |  192 |       482    0.1 |       849    0.2  29.0 |      482    0.2 |
 |  193 |      2477    0.5 |      1575    0.5  60.8 |     1200    0.4 |
 |  194 |       404    0.1 |       786    0.2  30.7 |      488    0.2 |
 |  195 |      2577    0.5 |      1625    0.5  61.8 |     1232    0.4 |
 |  196 |       504    0.1 |       876    0.3  27.2 |      502    0.2 |
 |  197 |       506    0.1 |       891    0.3  29.0 |      506    0.2 |
 |  198 |      2259    0.5 |      1508    0.4  59.0 |     1128    0.4 |
 |  199 |       496    0.1 |       858    0.3  25.9 |      496    0.2 |
 |  200 |      2820    0.6 |      1706    0.5  66.2 |     1365    0.5 |
 |  201 |      2921    0.6 |      1751    0.5  65.4 |     1355    0.5 |
 |  202 |       474    0.1 |       822    0.2  26.3 |      474    0.2 |
 |  203 |       438    0.1 |       831    0.2  29.2 |      514    0.2 |
 |  204 |      2413    0.5 |      1572    0.5  60.7 |     1184    0.4 |
 |  205 |       486    0.1 |       855    0.3  28.8 |      486    0.2 |
 |  206 |      2379    0.5 |      1570    0.5  59.9 |     1170    0.4 |
 |  207 |       430    0.1 |       804    0.2  27.6 |      498    0.2 |
 |  208 |      2526    0.5 |      1600    0.5  60.0 |     1207    0.4 |
 |  209 |      2584    0.5 |      1622    0.5  64.7 |     1268    0.4 |
 |  210 |       459    0.1 |       842    0.2  30.3 |      502    0.2 |
 |  211 |      2574    0.5 |      1638    0.5  61.2 |     1229    0.4 |
 |  212 |       494    0.1 |       849    0.2  24.9 |      493    0.2 |
 |  213 |       453    0.1 |       842    0.2  28.7 |      516    0.2 |
 |  214 |      2362    0.5 |      1547    0.5  61.0 |     1166    0.4 |
 |  215 |      2555    0.5 |      1630    0.5  60.8 |     1225    0.4 |
 |  216 |       480    0.1 |       849    0.2  29.4 |      480    0.2 |
 |  217 |      2533    0.5 |      1589    0.5  61.9 |     1198    0.4 |
 |  218 |       434    0.1 |       813    0.2  30.3 |      490    0.2 |
 |  219 |      2679    0.6 |      1642    0.5  63.5 |     1259    0.4 |
 |  220 |       472    0.1 |       822    0.2  27.0 |      472    0.2 |
 |  221 |      2008    0.4 |      1419    0.4  55.2 |     1037    0.4 |
 |  222 |       490    0.1 |       846    0.2  25.5 |      490    0.2 |
 |  223 |      3106    0.7 |      1777    0.5  66.9 |     1434    0.5 |
 |  224 |       472    0.1 |       816    0.2  25.7 |      472    0.2 |
 |  225 |       492    0.1 |       849    0.2  25.4 |      492    0.2 |
 |  226 |      2531    0.5 |      1595    0.5  60.7 |     1208    0.4 |
 |  227 |       484    0.1 |       873    0.3  28.9 |      516    0.2 |
 |  228 |      2411    0.5 |      1571    0.5  61.8 |     1194    0.4 |
 |  229 |       498    0.1 |       867    0.3  27.0 |      498    0.2 |
 |  230 |      2437    0.5 |      1556    0.5  61.4 |     1177    0.4 |
 |  231 |      2766    0.6 |      1671    0.5  66.4 |     1314    0.5 |
 |  232 |       476    0.1 |       828    0.2  26.8 |      476    0.2 |
 |  233 |      2510    0.5 |      1598    0.5  60.2 |     1216    0.4 |
 |  234 |      2361    0.5 |      1533    0.5  60.9 |     1149    0.4 |
 |  235 |       422    0.1 |       810    0.2  28.5 |      510    0.2 |
 |  236 |       486    0.1 |       840    0.2  25.7 |      486    0.2 |
 |  237 |       488    0.1 |       843    0.2  25.6 |      488    0.2 |
 |  238 |      2405    0.5 |      1561    0.5  60.4 |     1170    0.4 |
 |  239 |       458    0.1 |       834    0.2  29.1 |      498    0.2 |
 |  240 |      2629    0.6 |      1636    0.5  64.4 |     1278    0.4 |
 |  241 |       432    0.1 |       808    0.2  30.2 |      487    0.2 |
 |  242 |      1932    0.4 |      1361    0.4  55.8 |      982    0.3 |
 |  243 |      1622    0.3 |      1274    0.4  51.7 |      889    0.3 |
 |  244 |      2359    0.5 |      1540    0.5  60.6 |     1164    0.4 |
 |  245 |       416    0.1 |       783    0.2  28.7 |      484    0.2 |
 |  246 |       456    0.1 |       843    0.2  31.0 |      500    0.2 |
 |  247 |      2564    0.5 |      1671    0.5  62.4 |     1236    0.4 |
 |  248 |      2945    0.6 |      1742    0.5  64.5 |     1360    0.5 |
 |  249 |       472    0.1 |       816    0.2  25.7 |      472    0.2 |
 |  250 |      2229    0.5 |      1515    0.4  60.4 |     1110    0.4 |
 |  251 |       492    0.1 |       846    0.2  24.8 |      492    0.2 |
 |  252 |      2625    0.6 |      1629    0.5  65.0 |     1258    0.4 |
 |  253 |       486    0.1 |       840    0.2  25.7 |      486    0.2 |
 |  254 |       488    0.1 |       843    0.2  25.6 |      488    0.2 |
 |  255 |      2613    0.6 |      1651    0.5  65.4 |     1293    0.4 |
 |  256 |      2298    0.5 |      1490    0.4  59.7 |     1110    0.4 |
 +------+------------------+------------------------+-----------------+
 | Min  |       404    0.1 |       622    0.2  14.6 |      466    0.2 |
 |(part)|           (  194)|           (    3    93)|          (  156)|
 +------+------------------+------------------------+-----------------+
 | Max  |      4505    1.0 |      3240    1.0  83.7 |     2383    0.8 |
 |(part)|           (   21)|           (   88    88)|          (   88)|
 +------+------------------+------------------------+-----------------+
 | Ave  |      1842    0.4 |      1328    0.4  56.1 |     1134    0.4 |
 +------+------------------+------------------------+-----------------+
 | Sum  |    471497  100.0 |    339933  100.0  56.1 |   290422  100.0 |
 +------+------------------+------------------------+-----------------+

 +--------------------------------------------------------------------+
 |                 Partitioning CPU-Time Requirements                 |
 +--------------------------------------------------------------------+
  
 - Preparations                                       1.249E+01 seconds
 - Low-level mesh partitioning                        1.930E+01 seconds
 - Gather zone interface information                  6.900E+01 seconds
 - Global partitioning information                    1.312E+00 seconds
 - Element and face partitioning information          1.687E+00 seconds
 - Vertex partitioning information                    8.267E+00 seconds
 - Partitioning information compression               9.401E-02 seconds
 - Summed CPU-time for mesh partitioning              1.143E+02 seconds

 +--------------------------------------------------------------------+
 |                   Job Information at End of Run                    |
 +--------------------------------------------------------------------+

 +---------------------------+------+----------+----------+-----------+
 | Host                      | Mesh |     Job Finished    |    CPU    |
 |                           | Part | DD/MM/YY | hh:mm:ss |  seconds  |
 +---------------------------+------+----------+----------+-----------+
 | RD000D3A21FAED            |    1 | 29/05/15 | 06:25:30 | 1.635E+02 |
 +---------------------------+------+----------+----------+-----------+

 Total wall clock time: 1.631E+02 seconds
             or: (          0:         0:         2:    43.056 )
                 (       Days:     Hours:   Minutes:   Seconds )


 +--------------------------------------------------------------------+
 |                                                                    |
 |                               Solver                               |
 |                                                                    |
 +--------------------------------------------------------------------+




 +--------------------------------------------------------------------+
 |                                                                    |
 |                    ANSYS(R) CFX(R) Solver 15.0.7                   |
 |                                                                    |
 | Version 2014.04.10-23.00-131675     Thu Apr 10 23:23:23 GMTDT 2014 |
 |                                                                    |
 |                        Executable Attributes                       |
 |                                                                    |
 |          single-64bit-int32-supfort-optimised-noprof-lcomp         |
 |                                                                    |
 | (C) 2014 ANSYS, Inc.                                               |
 |                                                                    |
 | All rights reserved. Unauthorized use, distribution or duplication |
 | is prohibited. This product is subject to U.S. laws governing      |
 | export and re-export. For full Legal Notice, see documentation.    |
 +--------------------------------------------------------------------+




 +--------------------------------------------------------------------+
 |                  Job Information at Start of Run                   |
 +--------------------------------------------------------------------+

 Run mode:       parallel run (MS MPI)

 +------------------------------+------+--------+----------+----------+
 | Host                         | Mesh |  PID   |     Job Started     |
 |                              | Part |        | DD/MM/YY | hh:mm:ss |
 +------------------------------+------+--------+----------+----------+
 | RD000D3A21FAED               |    1 |   1932 | 29/05/15 | 06:27:12 |
 |                              |    2 |   1872 | 29/05/15 | 06:27:12 |
 |                              |    3 |   1040 | 29/05/15 | 06:27:12 |
 |                              |    4 |   1056 | 29/05/15 | 06:27:12 |
 |                              |    5 |   1092 | 29/05/15 | 06:27:12 |
 |                              |    6 |   1840 | 29/05/15 | 06:27:12 |
 |                              |    7 |   2104 | 29/05/15 | 06:27:12 |
 |                              |    8 |    500 | 29/05/15 | 06:27:12 |
 +------------------------------+------+--------+----------+----------+
 | RD000D3A21FC45               |    9 |   1844 | 29/05/15 | 06:27:12 |
 |                              |   10 |   1172 | 29/05/15 | 06:27:12 |
 |                              |   11 |   2188 | 29/05/15 | 06:27:12 |
 |                              |   12 |   4068 | 29/05/15 | 06:27:12 |
 |                              |   13 |   1096 | 29/05/15 | 06:27:12 |
 |                              |   14 |   1304 | 29/05/15 | 06:27:12 |
 |                              |   15 |   1596 | 29/05/15 | 06:27:12 |
 |                              |   16 |   1924 | 29/05/15 | 06:27:12 |
 +------------------------------+------+--------+----------+----------+
 | RD000D3A21F47E               |   17 |   3056 | 29/05/15 | 06:27:13 |
 |                              |   18 |    764 | 29/05/15 | 06:27:13 |
 |                              |   19 |   2612 | 29/05/15 | 06:27:13 |
 |                              |   20 |    520 | 29/05/15 | 06:27:13 |
 |                              |   21 |   2256 | 29/05/15 | 06:27:13 |
 |                              |   22 |   3568 | 29/05/15 | 06:27:13 |
 |                              |   23 |   3196 | 29/05/15 | 06:27:13 |
 |                              |   24 |   2004 | 29/05/15 | 06:27:13 |
 +------------------------------+------+--------+----------+----------+
 | RD000D3A21FFAC               |   25 |   3652 | 29/05/15 | 06:27:12 |
 |                              |   26 |   3288 | 29/05/15 | 06:27:12 |
 |                              |   27 |   3928 | 29/05/15 | 06:27:12 |
 |                              |   28 |   3168 | 29/05/15 | 06:27:12 |
 |                              |   29 |   4040 | 29/05/15 | 06:27:12 |
 |                              |   30 |   3696 | 29/05/15 | 06:27:12 |
 |                              |   31 |   1220 | 29/05/15 | 06:27:12 |
 |                              |   32 |   3628 | 29/05/15 | 06:27:12 |
 +------------------------------+------+--------+----------+----------+
 | RD000D3A21F59B               |   33 |   2492 | 29/05/15 | 06:27:12 |
 |                              |   34 |   1032 | 29/05/15 | 06:27:12 |
 |                              |   35 |   2136 | 29/05/15 | 06:27:12 |
 |                              |   36 |   3528 | 29/05/15 | 06:27:12 |
 |                              |   37 |   2172 | 29/05/15 | 06:27:12 |
 |                              |   38 |   1340 | 29/05/15 | 06:27:12 |
 |                              |   39 |   3024 | 29/05/15 | 06:27:12 |
 |                              |   40 |   4004 | 29/05/15 | 06:27:12 |
 +------------------------------+------+--------+----------+----------+
 | RD000D3A21FC8B               |   41 |   1236 | 29/05/15 | 06:27:12 |
 |                              |   42 |   3820 | 29/05/15 | 06:27:12 |
 |                              |   43 |   3988 | 29/05/15 | 06:27:12 |
 |                              |   44 |   1244 | 29/05/15 | 06:27:12 |
 |                              |   45 |   3716 | 29/05/15 | 06:27:12 |
 |                              |   46 |   1352 | 29/05/15 | 06:27:12 |
 |                              |   47 |   3204 | 29/05/15 | 06:27:12 |
 |                              |   48 |   3092 | 29/05/15 | 06:27:12 |
 +------------------------------+------+--------+----------+----------+
 | RD000D3A21F495               |   49 |   1836 | 29/05/15 | 06:27:12 |
 |                              |   50 |   3004 | 29/05/15 | 06:27:12 |
 |                              |   51 |   1028 | 29/05/15 | 06:27:12 |
 |                              |   52 |   3260 | 29/05/15 | 06:27:12 |
 |                              |   53 |   1128 | 29/05/15 | 06:27:12 |
 |                              |   54 |   2940 | 29/05/15 | 06:27:12 |
 |                              |   55 |   3264 | 29/05/15 | 06:27:12 |
 |                              |   56 |   3628 | 29/05/15 | 06:27:12 |
 +------------------------------+------+--------+----------+----------+
 | RD000D3A21FCA8               |   57 |   2296 | 29/05/15 | 06:27:13 |
 |                              |   58 |   3880 | 29/05/15 | 06:27:13 |
 |                              |   59 |   3412 | 29/05/15 | 06:27:13 |
 |                              |   60 |   3272 | 29/05/15 | 06:27:13 |
 |                              |   61 |   3800 | 29/05/15 | 06:27:13 |
 |                              |   62 |   4012 | 29/05/15 | 06:27:13 |
 |                              |   63 |   3296 | 29/05/15 | 06:27:13 |
 |                              |   64 |   1684 | 29/05/15 | 06:27:13 |
 +------------------------------+------+--------+----------+----------+
 | RD000D3A21F61B               |   65 |   3272 | 29/05/15 | 06:27:12 |
 |                              |   66 |   3896 | 29/05/15 | 06:27:12 |
 |                              |   67 |   1256 | 29/05/15 | 06:27:12 |
 |                              |   68 |   3988 | 29/05/15 | 06:27:12 |
 |                              |   69 |   3676 | 29/05/15 | 06:27:12 |
 |                              |   70 |   3660 | 29/05/15 | 06:27:12 |
 |                              |   71 |   3932 | 29/05/15 | 06:27:12 |
 |                              |   72 |   4072 | 29/05/15 | 06:27:12 |
 +------------------------------+------+--------+----------+----------+
 | RD000D3A21FEED               |   73 |    780 | 29/05/15 | 06:27:12 |
 |                              |   74 |   3240 | 29/05/15 | 06:27:12 |
 |                              |   75 |   3812 | 29/05/15 | 06:27:12 |
 |                              |   76 |   1396 | 29/05/15 | 06:27:12 |
 |                              |   77 |   3028 | 29/05/15 | 06:27:12 |
 |                              |   78 |   1672 | 29/05/15 | 06:27:12 |
 |                              |   79 |   2044 | 29/05/15 | 06:27:12 |
 |                              |   80 |   3420 | 29/05/15 | 06:27:12 |
 +------------------------------+------+--------+----------+----------+
 | RD000D3A21FFEC               |   81 |   2796 | 29/05/15 | 06:27:12 |
 |                              |   82 |    980 | 29/05/15 | 06:27:12 |
 |                              |   83 |   1536 | 29/05/15 | 06:27:12 |
 |                              |   84 |   3968 | 29/05/15 | 06:27:12 |
 |                              |   85 |   1232 | 29/05/15 | 06:27:12 |
 |                              |   86 |    120 | 29/05/15 | 06:27:12 |
 |                              |   87 |   4076 | 29/05/15 | 06:27:12 |
 |                              |   88 |   2636 | 29/05/15 | 06:27:12 |
 +------------------------------+------+--------+----------+----------+
 | RD000D3A21FC0F               |   89 |   3572 | 29/05/15 | 06:27:12 |
 |                              |   90 |   2500 | 29/05/15 | 06:27:12 |
 |                              |   91 |   3360 | 29/05/15 | 06:27:12 |
 |                              |   92 |   4044 | 29/05/15 | 06:27:12 |
 |                              |   93 |   3092 | 29/05/15 | 06:27:12 |
 |                              |   94 |   3052 | 29/05/15 | 06:27:12 |
 |                              |   95 |   1832 | 29/05/15 | 06:27:12 |
 |                              |   96 |   3180 | 29/05/15 | 06:27:12 |
 +------------------------------+------+--------+----------+----------+
 | RD000D3A21FD23               |   97 |   3256 | 29/05/15 | 06:27:12 |
 |                              |   98 |   3928 | 29/05/15 | 06:27:12 |
 |                              |   99 |   3320 | 29/05/15 | 06:27:12 |
 |                              |  100 |   2820 | 29/05/15 | 06:27:12 |
 |                              |  101 |   3816 | 29/05/15 | 06:27:12 |
 |                              |  102 |   3176 | 29/05/15 | 06:27:12 |
 |                              |  103 |   2056 | 29/05/15 | 06:27:12 |
 |                              |  104 |   3204 | 29/05/15 | 06:27:12 |
 +------------------------------+------+--------+----------+----------+
 | RD000D3A21FC1E               |  105 |   1996 | 29/05/15 | 06:27:12 |
 |                              |  106 |   1868 | 29/05/15 | 06:27:12 |
 |                              |  107 |   2804 | 29/05/15 | 06:27:12 |
 |                              |  108 |   3916 | 29/05/15 | 06:27:12 |
 |                              |  109 |   2692 | 29/05/15 | 06:27:12 |
 |                              |  110 |   2012 | 29/05/15 | 06:27:12 |
 |                              |  111 |   3608 | 29/05/15 | 06:27:12 |
 |                              |  112 |   3184 | 29/05/15 | 06:27:12 |
 +------------------------------+------+--------+----------+----------+
 | RD000D3A21F2FE               |  113 |   3912 | 29/05/15 | 06:27:12 |
 |                              |  114 |   3980 | 29/05/15 | 06:27:12 |
 |                              |  115 |   1068 | 29/05/15 | 06:27:12 |
 |                              |  116 |   3264 | 29/05/15 | 06:27:12 |
 |                              |  117 |   3544 | 29/05/15 | 06:27:12 |
 |                              |  118 |   3368 | 29/05/15 | 06:27:12 |
 |                              |  119 |   2752 | 29/05/15 | 06:27:12 |
 |                              |  120 |   3408 | 29/05/15 | 06:27:12 |
 +------------------------------+------+--------+----------+----------+
 | RD000D3A21FA6D               |  121 |   1384 | 29/05/15 | 06:27:12 |
 |                              |  122 |   3256 | 29/05/15 | 06:27:12 |
 |                              |  123 |   3608 | 29/05/15 | 06:27:12 |
 |                              |  124 |   4000 | 29/05/15 | 06:27:12 |
 |                              |  125 |   3204 | 29/05/15 | 06:27:12 |
 |                              |  126 |   2700 | 29/05/15 | 06:27:12 |
 |                              |  127 |   1944 | 29/05/15 | 06:27:12 |
 |                              |  128 |   3636 | 29/05/15 | 06:27:12 |
 +------------------------------+------+--------+----------+----------+
 | RD000D3A21FA6F               |  129 |   4068 | 29/05/15 | 06:27:12 |
 |                              |  130 |   2016 | 29/05/15 | 06:27:12 |
 |                              |  131 |   3800 | 29/05/15 | 06:27:12 |
 |                              |  132 |    776 | 29/05/15 | 06:27:12 |
 |                              |  133 |   2396 | 29/05/15 | 06:27:12 |
 |                              |  134 |   2884 | 29/05/15 | 06:27:12 |
 |                              |  135 |    500 | 29/05/15 | 06:27:12 |
 |                              |  136 |   2156 | 29/05/15 | 06:27:12 |
 +------------------------------+------+--------+----------+----------+
 | RD000D3A21FDA9               |  137 |   1196 | 29/05/15 | 06:27:12 |
[...]
 |                           |   20 | 29/05/15 | 06:52:57 | 1.549E+03 |
 |                           |   21 | 29/05/15 | 06:52:57 | 1.549E+03 |
 |                           |   22 | 29/05/15 | 06:52:57 | 1.549E+03 |
 |                           |   23 | 29/05/15 | 06:52:57 | 1.549E+03 |
 |                           |   24 | 29/05/15 | 06:52:57 | 1.549E+03 |
 +---------------------------+------+----------+----------+-----------+
 | RD000D3A21FFAC            |   25 | 29/05/15 | 06:52:57 | 1.549E+03 |
 |                           |   26 | 29/05/15 | 06:52:57 | 1.549E+03 |
 |                           |   27 | 29/05/15 | 06:52:57 | 1.549E+03 |
 |                           |   28 | 29/05/15 | 06:52:57 | 1.549E+03 |
 |                           |   29 | 29/05/15 | 06:52:57 | 1.549E+03 |
 |                           |   30 | 29/05/15 | 06:52:57 | 1.549E+03 |
 |                           |   31 | 29/05/15 | 06:52:57 | 1.549E+03 |
 |                           |   32 | 29/05/15 | 06:52:57 | 1.549E+03 |
 +---------------------------+------+----------+----------+-----------+
 | RD000D3A21F59B            |   33 | 29/05/15 | 06:52:57 | 1.548E+03 |
 |                           |   34 | 29/05/15 | 06:52:57 | 1.548E+03 |
 |                           |   35 | 29/05/15 | 06:52:57 | 1.548E+03 |
 |                           |   36 | 29/05/15 | 06:52:57 | 1.548E+03 |
 |                           |   37 | 29/05/15 | 06:52:57 | 1.548E+03 |
 |                           |   38 | 29/05/15 | 06:52:57 | 1.548E+03 |
 |                           |   39 | 29/05/15 | 06:52:57 | 1.548E+03 |
 |                           |   40 | 29/05/15 | 06:52:57 | 1.548E+03 |
 +---------------------------+------+----------+----------+-----------+
 | RD000D3A21FC8B            |   41 | 29/05/15 | 06:52:57 | 1.549E+03 |
 |                           |   42 | 29/05/15 | 06:52:57 | 1.549E+03 |
 |                           |   43 | 29/05/15 | 06:52:57 | 1.549E+03 |
 |                           |   44 | 29/05/15 | 06:52:57 | 1.549E+03 |
 |                           |   45 | 29/05/15 | 06:52:57 | 1.549E+03 |
 |                           |   46 | 29/05/15 | 06:52:57 | 1.549E+03 |
 |                           |   47 | 29/05/15 | 06:52:57 | 1.549E+03 |
 |                           |   48 | 29/05/15 | 06:52:57 | 1.549E+03 |
 +---------------------------+------+----------+----------+-----------+
 | RD000D3A21F495            |   49 | 29/05/15 | 06:52:57 | 1.550E+03 |
 |                           |   50 | 29/05/15 | 06:52:57 | 1.550E+03 |
 |                           |   51 | 29/05/15 | 06:52:57 | 1.550E+03 |
 |                           |   52 | 29/05/15 | 06:52:57 | 1.550E+03 |
 |                           |   53 | 29/05/15 | 06:52:57 | 1.550E+03 |
 |                           |   54 | 29/05/15 | 06:52:57 | 1.550E+03 |
 |                           |   55 | 29/05/15 | 06:52:57 | 1.550E+03 |
 |                           |   56 | 29/05/15 | 06:52:57 | 1.550E+03 |
 +---------------------------+------+----------+----------+-----------+
 | RD000D3A21FCA8            |   57 | 29/05/15 | 06:52:57 | 1.549E+03 |
 |                           |   58 | 29/05/15 | 06:52:57 | 1.549E+03 |
 |                           |   59 | 29/05/15 | 06:52:57 | 1.549E+03 |
 |                           |   60 | 29/05/15 | 06:52:57 | 1.549E+03 |
 |                           |   61 | 29/05/15 | 06:52:57 | 1.549E+03 |
 |                           |   62 | 29/05/15 | 06:52:57 | 1.549E+03 |
 |                           |   63 | 29/05/15 | 06:52:57 | 1.549E+03 |
 |                           |   64 | 29/05/15 | 06:52:57 | 1.549E+03 |
 +---------------------------+------+----------+----------+-----------+
 | RD000D3A21F61B            |   65 | 29/05/15 | 06:52:57 | 1.549E+03 |
 |                           |   66 | 29/05/15 | 06:52:57 | 1.549E+03 |
 |                           |   67 | 29/05/15 | 06:52:57 | 1.549E+03 |
 |                           |   68 | 29/05/15 | 06:52:57 | 1.549E+03 |
 |                           |   69 | 29/05/15 | 06:52:57 | 1.549E+03 |
 |                           |   70 | 29/05/15 | 06:52:57 | 1.549E+03 |
 |                           |   71 | 29/05/15 | 06:52:57 | 1.549E+03 |
 |                           |   72 | 29/05/15 | 06:52:57 | 1.549E+03 |
 +---------------------------+------+----------+----------+-----------+
 | RD000D3A21FEED            |   73 | 29/05/15 | 06:52:56 | 1.549E+03 |
 |                           |   74 | 29/05/15 | 06:52:56 | 1.549E+03 |
 |                           |   75 | 29/05/15 | 06:52:56 | 1.549E+03 |
 |                           |   76 | 29/05/15 | 06:52:56 | 1.549E+03 |
 |                           |   77 | 29/05/15 | 06:52:56 | 1.549E+03 |
 |                           |   78 | 29/05/15 | 06:52:56 | 1.549E+03 |
 |                           |   79 | 29/05/15 | 06:52:56 | 1.549E+03 |
 |                           |   80 | 29/05/15 | 06:52:56 | 1.549E+03 |
 +---------------------------+------+----------+----------+-----------+
 | RD000D3A21FFEC            |   81 | 29/05/15 | 06:52:56 | 1.549E+03 |
 |                           |   82 | 29/05/15 | 06:52:56 | 1.549E+03 |
 |                           |   83 | 29/05/15 | 06:52:56 | 1.549E+03 |
 |                           |   84 | 29/05/15 | 06:52:56 | 1.549E+03 |
 |                           |   85 | 29/05/15 | 06:52:56 | 1.549E+03 |
 |                           |   86 | 29/05/15 | 06:52:56 | 1.549E+03 |
 |                           |   87 | 29/05/15 | 06:52:56 | 1.549E+03 |
 |                           |   88 | 29/05/15 | 06:52:56 | 1.549E+03 |
 +---------------------------+------+----------+----------+-----------+
 | RD000D3A21FC0F            |   89 | 29/05/15 | 06:52:56 | 1.549E+03 |
 |                           |   90 | 29/05/15 | 06:52:56 | 1.549E+03 |
 |                           |   91 | 29/05/15 | 06:52:56 | 1.549E+03 |
 |                           |   92 | 29/05/15 | 06:52:56 | 1.549E+03 |
 |                           |   93 | 29/05/15 | 06:52:56 | 1.549E+03 |
 |                           |   94 | 29/05/15 | 06:52:56 | 1.549E+03 |
 |                           |   95 | 29/05/15 | 06:52:56 | 1.549E+03 |
 |                           |   96 | 29/05/15 | 06:52:56 | 1.549E+03 |
 +---------------------------+------+----------+----------+-----------+
 | RD000D3A21FD23            |   97 | 29/05/15 | 06:52:57 | 1.548E+03 |
 |                           |   98 | 29/05/15 | 06:52:57 | 1.548E+03 |
 |                           |   99 | 29/05/15 | 06:52:57 | 1.548E+03 |
 |                           |  100 | 29/05/15 | 06:52:57 | 1.548E+03 |
 |                           |  101 | 29/05/15 | 06:52:57 | 1.548E+03 |
 |                           |  102 | 29/05/15 | 06:52:57 | 1.548E+03 |
 |                           |  103 | 29/05/15 | 06:52:57 | 1.548E+03 |
 |                           |  104 | 29/05/15 | 06:52:57 | 1.548E+03 |
 +---------------------------+------+----------+----------+-----------+
 | RD000D3A21FC1E            |  105 | 29/05/15 | 06:52:57 | 1.549E+03 |
 |                           |  106 | 29/05/15 | 06:52:57 | 1.549E+03 |
 |                           |  107 | 29/05/15 | 06:52:57 | 1.549E+03 |
 |                           |  108 | 29/05/15 | 06:52:57 | 1.549E+03 |
 |                           |  109 | 29/05/15 | 06:52:57 | 1.549E+03 |
 |                           |  110 | 29/05/15 | 06:52:57 | 1.549E+03 |
 |                           |  111 | 29/05/15 | 06:52:57 | 1.549E+03 |
 |                           |  112 | 29/05/15 | 06:52:57 | 1.549E+03 |
 +---------------------------+------+----------+----------+-----------+
 | RD000D3A21F2FE            |  113 | 29/05/15 | 06:52:56 | 1.548E+03 |
 |                           |  114 | 29/05/15 | 06:52:56 | 1.548E+03 |
 |                           |  115 | 29/05/15 | 06:52:56 | 1.548E+03 |
 |                           |  116 | 29/05/15 | 06:52:56 | 1.548E+03 |
 |                           |  117 | 29/05/15 | 06:52:56 | 1.548E+03 |
 |                           |  118 | 29/05/15 | 06:52:56 | 1.548E+03 |
 |                           |  119 | 29/05/15 | 06:52:56 | 1.548E+03 |
 |                           |  120 | 29/05/15 | 06:52:56 | 1.548E+03 |
 +---------------------------+------+----------+----------+-----------+
 | RD000D3A21FA6D            |  121 | 29/05/15 | 06:52:56 | 1.550E+03 |
 |                           |  122 | 29/05/15 | 06:52:56 | 1.550E+03 |
 |                           |  123 | 29/05/15 | 06:52:56 | 1.550E+03 |
 |                           |  124 | 29/05/15 | 06:52:56 | 1.550E+03 |
 |                           |  125 | 29/05/15 | 06:52:56 | 1.550E+03 |
 |                           |  126 | 29/05/15 | 06:52:56 | 1.550E+03 |
 |                           |  127 | 29/05/15 | 06:52:56 | 1.550E+03 |
 |                           |  128 | 29/05/15 | 06:52:56 | 1.550E+03 |
 +---------------------------+------+----------+----------+-----------+
 | RD000D3A21FA6F            |  129 | 29/05/15 | 06:52:56 | 1.548E+03 |
 |                           |  130 | 29/05/15 | 06:52:56 | 1.548E+03 |
 |                           |  131 | 29/05/15 | 06:52:56 | 1.548E+03 |
 |                           |  132 | 29/05/15 | 06:52:56 | 1.548E+03 |
 |                           |  133 | 29/05/15 | 06:52:56 | 1.548E+03 |
 |                           |  134 | 29/05/15 | 06:52:56 | 1.548E+03 |
 |                           |  135 | 29/05/15 | 06:52:56 | 1.548E+03 |
 |                           |  136 | 29/05/15 | 06:52:56 | 1.548E+03 |
 +---------------------------+------+----------+----------+-----------+
 | RD000D3A21FDA9            |  137 | 29/05/15 | 06:52:57 | 1.549E+03 |
 |                           |  138 | 29/05/15 | 06:52:57 | 1.549E+03 |
 |                           |  139 | 29/05/15 | 06:52:57 | 1.549E+03 |
 |                           |  140 | 29/05/15 | 06:52:57 | 1.549E+03 |
 |                           |  141 | 29/05/15 | 06:52:57 | 1.549E+03 |
 |                           |  142 | 29/05/15 | 06:52:57 | 1.549E+03 |
 |                           |  143 | 29/05/15 | 06:52:57 | 1.549E+03 |
 |                           |  144 | 29/05/15 | 06:52:57 | 1.549E+03 |
 +---------------------------+------+----------+----------+-----------+
 | RD000D3A21F990            |  145 | 29/05/15 | 06:52:56 | 1.549E+03 |
 |                           |  146 | 29/05/15 | 06:52:56 | 1.549E+03 |
 |                           |  147 | 29/05/15 | 06:52:56 | 1.549E+03 |
 |                           |  148 | 29/05/15 | 06:52:56 | 1.549E+03 |
 |                           |  149 | 29/05/15 | 06:52:56 | 1.549E+03 |
 |                           |  150 | 29/05/15 | 06:52:56 | 1.549E+03 |
 |                           |  151 | 29/05/15 | 06:52:56 | 1.549E+03 |
 |                           |  152 | 29/05/15 | 06:52:56 | 1.549E+03 |
 +---------------------------+------+----------+----------+-----------+
 | RD000D3A21FFEA            |  153 | 29/05/15 | 06:52:57 | 1.548E+03 |
 |                           |  154 | 29/05/15 | 06:52:57 | 1.548E+03 |
 |                           |  155 | 29/05/15 | 06:52:57 | 1.548E+03 |
 |                           |  156 | 29/05/15 | 06:52:57 | 1.548E+03 |
 |                           |  157 | 29/05/15 | 06:52:57 | 1.548E+03 |
 |                           |  158 | 29/05/15 | 06:52:57 | 1.548E+03 |
 |                           |  159 | 29/05/15 | 06:52:57 | 1.548E+03 |
 |                           |  160 | 29/05/15 | 06:52:57 | 1.548E+03 |
 +---------------------------+------+----------+----------+-----------+
 | RD000D3A21F436            |  161 | 29/05/15 | 06:52:57 | 1.550E+03 |
 |                           |  162 | 29/05/15 | 06:52:57 | 1.550E+03 |
 |                           |  163 | 29/05/15 | 06:52:57 | 1.550E+03 |
 |                           |  164 | 29/05/15 | 06:52:57 | 1.550E+03 |
 |                           |  165 | 29/05/15 | 06:52:57 | 1.550E+03 |
 |                           |  166 | 29/05/15 | 06:52:57 | 1.550E+03 |
 |                           |  167 | 29/05/15 | 06:52:57 | 1.550E+03 |
 |                           |  168 | 29/05/15 | 06:52:57 | 1.550E+03 |
 +---------------------------+------+----------+----------+-----------+
 | RD000D3A21FC15            |  169 | 29/05/15 | 06:52:57 | 1.549E+03 |
 |                           |  170 | 29/05/15 | 06:52:57 | 1.549E+03 |
 |                           |  171 | 29/05/15 | 06:52:57 | 1.549E+03 |
 |                           |  172 | 29/05/15 | 06:52:57 | 1.549E+03 |
 |                           |  173 | 29/05/15 | 06:52:57 | 1.549E+03 |
 |                           |  174 | 29/05/15 | 06:52:57 | 1.549E+03 |
 |                           |  175 | 29/05/15 | 06:52:57 | 1.549E+03 |
 |                           |  176 | 29/05/15 | 06:52:57 | 1.549E+03 |
 +---------------------------+------+----------+----------+-----------+
 | RD000D3A21FB9A            |  177 | 29/05/15 | 06:52:57 | 1.549E+03 |
 |                           |  178 | 29/05/15 | 06:52:57 | 1.549E+03 |
 |                           |  179 | 29/05/15 | 06:52:57 | 1.549E+03 |
 |                           |  180 | 29/05/15 | 06:52:57 | 1.549E+03 |
 |                           |  181 | 29/05/15 | 06:52:57 | 1.549E+03 |
 |                           |  182 | 29/05/15 | 06:52:57 | 1.549E+03 |
 |                           |  183 | 29/05/15 | 06:52:57 | 1.549E+03 |
 |                           |  184 | 29/05/15 | 06:52:57 | 1.549E+03 |
 +---------------------------+------+----------+----------+-----------+
 | RD000D3A21F854            |  185 | 29/05/15 | 06:52:56 | 1.549E+03 |
 |                           |  186 | 29/05/15 | 06:52:56 | 1.549E+03 |
 |                           |  187 | 29/05/15 | 06:52:56 | 1.549E+03 |
 |                           |  188 | 29/05/15 | 06:52:56 | 1.549E+03 |
 |                           |  189 | 29/05/15 | 06:52:56 | 1.549E+03 |
 |                           |  190 | 29/05/15 | 06:52:56 | 1.549E+03 |
 |                           |  191 | 29/05/15 | 06:52:56 | 1.549E+03 |
 |                           |  192 | 29/05/15 | 06:52:56 | 1.549E+03 |
 +---------------------------+------+----------+----------+-----------+
 | RD000D3A21F25F            |  193 | 29/05/15 | 06:52:57 | 1.547E+03 |
 |                           |  194 | 29/05/15 | 06:52:57 | 1.547E+03 |
 |                           |  195 | 29/05/15 | 06:52:57 | 1.547E+03 |
 |                           |  196 | 29/05/15 | 06:52:57 | 1.547E+03 |
 |                           |  197 | 29/05/15 | 06:52:57 | 1.547E+03 |
 |                           |  198 | 29/05/15 | 06:52:57 | 1.547E+03 |
 |                           |  199 | 29/05/15 | 06:52:57 | 1.547E+03 |
 |                           |  200 | 29/05/15 | 06:52:57 | 1.547E+03 |
 +---------------------------+------+----------+----------+-----------+
 | RD000D3A21F7A7            |  201 | 29/05/15 | 06:52:57 | 1.548E+03 |
 |                           |  202 | 29/05/15 | 06:52:57 | 1.548E+03 |
 |                           |  203 | 29/05/15 | 06:52:57 | 1.548E+03 |
 |                           |  204 | 29/05/15 | 06:52:57 | 1.548E+03 |
 |                           |  205 | 29/05/15 | 06:52:57 | 1.548E+03 |
 |                           |  206 | 29/05/15 | 06:52:57 | 1.548E+03 |
 |                           |  207 | 29/05/15 | 06:52:57 | 1.548E+03 |
 |                           |  208 | 29/05/15 | 06:52:57 | 1.548E+03 |
 +---------------------------+------+----------+----------+-----------+
 | RD000D3A21FA60            |  209 | 29/05/15 | 06:52:57 | 1.549E+03 |
 |                           |  210 | 29/05/15 | 06:52:57 | 1.549E+03 |
 |                           |  211 | 29/05/15 | 06:52:57 | 1.549E+03 |
 |                           |  212 | 29/05/15 | 06:52:57 | 1.549E+03 |
 |                           |  213 | 29/05/15 | 06:52:57 | 1.549E+03 |
 |                           |  214 | 29/05/15 | 06:52:57 | 1.549E+03 |
 |                           |  215 | 29/05/15 | 06:52:57 | 1.549E+03 |
 |                           |  216 | 29/05/15 | 06:52:57 | 1.549E+03 |
 +---------------------------+------+----------+----------+-----------+
 | RD000D3A21FEFD            |  217 | 29/05/15 | 06:52:56 | 1.555E+03 |
 |                           |  218 | 29/05/15 | 06:52:56 | 1.555E+03 |
 |                           |  219 | 29/05/15 | 06:52:56 | 1.555E+03 |
 |                           |  220 | 29/05/15 | 06:52:56 | 1.555E+03 |
 |                           |  221 | 29/05/15 | 06:52:56 | 1.555E+03 |
 |                           |  222 | 29/05/15 | 06:52:56 | 1.555E+03 |
 |                           |  223 | 29/05/15 | 06:52:56 | 1.555E+03 |
 |                           |  224 | 29/05/15 | 06:52:56 | 1.555E+03 |
 +---------------------------+------+----------+----------+-----------+
 | RD000D3A21FC08            |  225 | 29/05/15 | 06:52:57 | 1.548E+03 |
 |                           |  226 | 29/05/15 | 06:52:57 | 1.548E+03 |
 |                           |  227 | 29/05/15 | 06:52:57 | 1.548E+03 |
 |                           |  228 | 29/05/15 | 06:52:57 | 1.548E+03 |
 |                           |  229 | 29/05/15 | 06:52:57 | 1.548E+03 |
 |                           |  230 | 29/05/15 | 06:52:57 | 1.548E+03 |
 |                           |  231 | 29/05/15 | 06:52:57 | 1.548E+03 |
 |                           |  232 | 29/05/15 | 06:52:57 | 1.548E+03 |
 +---------------------------+------+----------+----------+-----------+
 | RD000D3A21F275            |  233 | 29/05/15 | 06:52:57 | 1.549E+03 |
 |                           |  234 | 29/05/15 | 06:52:57 | 1.549E+03 |
 |                           |  235 | 29/05/15 | 06:52:57 | 1.549E+03 |
 |                           |  236 | 29/05/15 | 06:52:57 | 1.549E+03 |
 |                           |  237 | 29/05/15 | 06:52:57 | 1.549E+03 |
 |                           |  238 | 29/05/15 | 06:52:57 | 1.549E+03 |
 |                           |  239 | 29/05/15 | 06:52:57 | 1.549E+03 |
 |                           |  240 | 29/05/15 | 06:52:57 | 1.549E+03 |
 +---------------------------+------+----------+----------+-----------+
 | RD000D3A21F95A            |  241 | 29/05/15 | 06:52:57 | 1.550E+03 |
 |                           |  242 | 29/05/15 | 06:52:57 | 1.550E+03 |
 |                           |  243 | 29/05/15 | 06:52:57 | 1.550E+03 |
 |                           |  244 | 29/05/15 | 06:52:57 | 1.550E+03 |
 |                           |  245 | 29/05/15 | 06:52:57 | 1.550E+03 |
 |                           |  246 | 29/05/15 | 06:52:57 | 1.550E+03 |
 |                           |  247 | 29/05/15 | 06:52:57 | 1.550E+03 |
 |                           |  248 | 29/05/15 | 06:52:57 | 1.550E+03 |
 +---------------------------+------+----------+----------+-----------+
 | RD000D3A21F4A5            |  249 | 29/05/15 | 06:52:57 | 1.552E+03 |
 |                           |  250 | 29/05/15 | 06:52:57 | 1.552E+03 |
 |                           |  251 | 29/05/15 | 06:52:57 | 1.552E+03 |
 |                           |  252 | 29/05/15 | 06:52:57 | 1.552E+03 |
 |                           |  253 | 29/05/15 | 06:52:57 | 1.552E+03 |
 |                           |  254 | 29/05/15 | 06:52:57 | 1.552E+03 |
 |                           |  255 | 29/05/15 | 06:52:57 | 1.552E+03 |
 |                           |  256 | 29/05/15 | 06:52:57 | 1.552E+03 |
 +---------------------------+------+----------+----------+-----------+

 Total wall clock time: 1.546E+03 seconds
             or: (          0:         0:        25:    46.041 )
                 (       Days:     Hours:   Minutes:   Seconds )



 --> Final synchronization point reached by all partitions.
End of solution stage.

 +--------------------------------------------------------------------+
 | The results from this run of the ANSYS CFX Solver have been        |
 | written to                                                         |
 | \\10.10.13.6\C\Resources\directory\3301acebc8f4463d990a819988261b- |
 | b5.HSR.AzureEE.HpcWorkerRole.jobdata\job-2\pipe08_001.res          |
 +--------------------------------------------------------------------+


This run of the ANSYS CFX Solver has finished.
