 This run of the CFX-15.0.7 Solver started at 13:50:42 on 08 Jun 2015 by
 user MpiUser on RD000D3A216DCD (intel_xeon64.sse2_winnt) using the
 command:
 
  "\\hsransys.file.core.windows.net\main\apps\ANSYS Inc\v150\CFX\bin\perllib\cfx5solve.pl"
    -def pipe01.def -chdir
    \\10.10.13.41\C\Resources\directory\8810b9ad626f410f908be9ee09fdbab0.HSR.AzureEE.HpcWorkerRole.jobdata\job-9
    -start-method MSMPI2 -part 256
 
 Point Releases and Patches installed:
 
  ANSYS, Inc. Products 15.0.7
  ANSYS Mechanical Products 15.0.7
  ANSYS Autodyn 15.0.7
  ANSYS LS-DYNA 15.0.7
  ANSYS CFX (includes ANSYS CFD-Post) 15.0.7
  ANSYS Fluent (includes ANSYS CFD-Post) 15.0.7
  ANSYS TurboGrid 15.0.7
  ANSYS Polyflow (includes ANSYS CFD-Post) 15.0.7
  ANSYS Aqwa 15.0.7
  ANSYS ICEM CFD 15.0.7
  ANSYS Icepak (includes ANSYS CFD-Post) 15.0.7
  Catia, Version 6 15.0.7
  ANSYS, Inc. License Manager 15.0.7
 
 Setting up CFX Solver run ...
 

 +--------------------------------------------------------------------+
 |                              Warning!                              |
 |                                                                    |
 | The working directory is a UNC path, but the Windows command shell |
 | is currently not configured to support UNC paths. This may cause   |
 | failure of the CFX Solver.                                         |
 |                                                                    |
 | Command shell support for UNC paths can be enabled by setting the  |
 | Windows registry key DisableUNCCheck.                              |
 +--------------------------------------------------------------------+


 +--------------------------------------------------------------------+
 |                                                                    |
 |                    CFX Command Language Upgrade                    |
 |                                                                    |
 +--------------------------------------------------------------------+

 Added /SIMULATION CONTROL/EXECUTION CONTROL/EXECUTABLE SELECTION/Double
 Precision = Off.
 

 +--------------------------------------------------------------------+
 |                                                                    |
 |                    CFX Command Language for Run                    |
 |                                                                    |
 +--------------------------------------------------------------------+

 LIBRARY:
   CEL:
     EXPRESSIONS:
       DeltaT = probe(T)@MP3-273.15[K]
     END
   END
   MATERIAL: PE100RC
     Material Group = CHT Solids
     Option = Pure Substance
     Thermodynamic State = Solid
     PROPERTIES:
       Option = General Material
       EQUATION OF STATE:
         Density = 960 [kg m^-3]
         Molar Mass = 1.0 [kg kmol^-1]
         Option = Value
       END
       SPECIFIC HEAT CAPACITY:
         Option = Value
         Specific Heat Capacity = 1900 [J kg^-1 K^-1]
       END
       THERMAL CONDUCTIVITY:
         Option = Value
         Thermal Conductivity = 0.38 [W m^-1 K^-1]
       END
     END
   END
   MATERIAL: Water Glycol Mixture
     Material Description = Water (liquid)
     Material Group = Water Data,Constant Property Liquids
     Option = Pure Substance
     Thermodynamic State = Liquid
     PROPERTIES:
       Option = General Material
       EQUATION OF STATE:
         Density = 1042 [kg m^-3]
         Molar Mass = 18.02 [kg kmol^-1]
         Option = Value
       END
       SPECIFIC HEAT CAPACITY:
         Option = Value
         Specific Heat Capacity = 3481 [J kg^-1 K^-1]
         Specific Heat Type = Constant Pressure
       END
       REFERENCE STATE:
         Option = Specified Point
         Reference Pressure = 1 [atm]
         Reference Specific Enthalpy = 0.0 [J/kg]
         Reference Specific Entropy = 0.0 [J/kg/K]
         Reference Temperature = 0 [C]
       END
       DYNAMIC VISCOSITY:
         Dynamic Viscosity = 8.899E-4 [kg m^-1 s^-1]
         Option = Value
       END
       THERMAL CONDUCTIVITY:
         Option = Value
         Thermal Conductivity = 0.6069 [W m^-1 K^-1]
       END
       ABSORPTION COEFFICIENT:
         Absorption Coefficient = 1.0 [m^-1]
         Option = Value
       END
       SCATTERING COEFFICIENT:
         Option = Value
         Scattering Coefficient = 0.0 [m^-1]
       END
       REFRACTIVE INDEX:
         Option = Value
         Refractive Index = 1.0 [m m^-1]
       END
       THERMAL EXPANSIVITY:
         Option = Value
         Thermal Expansivity = 2.57E-04 [K^-1]
       END
     END
   END
 END
 FLOW: Flow Analysis 1
   SOLUTION UNITS:
     Angle Units = [rad]
     Length Units = [m]
     Mass Units = [kg]
     Solid Angle Units = [sr]
     Temperature Units = [K]
     Time Units = [s]
   END
   ANALYSIS TYPE:
     Option = Steady State
     EXTERNAL SOLVER COUPLING:
       Option = None
     END
   END
   DOMAIN: FluidDom
     Coord Frame = Coord 0
     Domain Type = Fluid
     Location = B446
     BOUNDARY: Default Fluid Solid Interface Side 1
       Boundary Type = INTERFACE
       Location = F449.446,F450.446,F452.446,F453.446,F454.446
       BOUNDARY CONDITIONS:
         HEAT TRANSFER:
           Option = Conservative Interface Flux
         END
         MASS AND MOMENTUM:
           Option = No Slip Wall
         END
         WALL ROUGHNESS:
           Option = Smooth Wall
         END
       END
     END
     BOUNDARY: Domain Interface 1 Side 1 1
       Boundary Type = INTERFACE
       Location = FluidSym01
       BOUNDARY CONDITIONS:
         HEAT TRANSFER:
           Option = Conservative Interface Flux
         END
         MASS AND MOMENTUM:
           Option = Conservative Interface Flux
         END
         TURBULENCE:
           Option = Conservative Interface Flux
         END
       END
     END
     BOUNDARY: Domain Interface 2 Side 1
       Boundary Type = INTERFACE
       Location = FluidSym02
       BOUNDARY CONDITIONS:
         HEAT TRANSFER:
           Option = Conservative Interface Flux
         END
         MASS AND MOMENTUM:
           Option = Conservative Interface Flux
         END
         TURBULENCE:
           Option = Conservative Interface Flux
         END
       END
     END
     BOUNDARY: Inlet
       Boundary Type = INLET
       Location = F447.446
       BOUNDARY CONDITIONS:
         FLOW REGIME:
           Option = Subsonic
         END
         HEAT TRANSFER:
           Option = Static Temperature
           Static Temperature = 273.15 [K]
         END
         MASS AND MOMENTUM:
           Normal Speed = 0.1 [m s^-1]
           Option = Normal Speed
         END
         TURBULENCE:
           Option = Medium Intensity and Eddy Viscosity Ratio
         END
       END
     END
     BOUNDARY: Outlet
       Boundary Type = OUTLET
       Location = F451.446
       BOUNDARY CONDITIONS:
         FLOW REGIME:
           Option = Subsonic
         END
         MASS AND MOMENTUM:
           Normal Speed = 0.1 [m s^-1]
           Option = Normal Speed
         END
       END
     END
     DOMAIN MODELS:
       BUOYANCY MODEL:
         Option = Non Buoyant
       END
       DOMAIN MOTION:
         Option = Stationary
       END
       MESH DEFORMATION:
         Option = None
       END
       REFERENCE PRESSURE:
         Reference Pressure = 1 [atm]
       END
     END
     FLUID DEFINITION: Fluid 1
       Material = Water Glycol Mixture
       Option = Material Library
       MORPHOLOGY:
         Option = Continuous Fluid
       END
     END
     FLUID MODELS:
       COMBUSTION MODEL:
         Option = None
       END
       HEAT TRANSFER MODEL:
         Option = Thermal Energy
       END
       THERMAL RADIATION MODEL:
         Option = None
       END
       TURBULENCE MODEL:
         Option = k epsilon
       END
       TURBULENT WALL FUNCTIONS:
         Option = Scalable
       END
     END
     SOURCE POINT: Origin
       Cartesian Coordinates = 0.0[m],0.0[m],0.0[m]
       Option = Cartesian Coordinates
     END
   END
   DOMAIN: TubeDom
     Coord Frame = Coord 0
     Domain Type = Solid
     Location = B378,B662
     BOUNDARY: Default Fluid Solid Interface Side 2
       Boundary Type = INTERFACE
       Location = \
         F379.378,F380.378,F381.378,F382.378,F383.378,F666.662,F668.662,F670.6\
         62,F672.662,F674.662
       BOUNDARY CONDITIONS:
         HEAT TRANSFER:
           Option = Conservative Interface Flux
         END
       END
     END
     BOUNDARY: Domain Interface 1 Side 1
       Boundary Type = INTERFACE
       Location = TubeIntFace01
       BOUNDARY CONDITIONS:
         HEAT TRANSFER:
           Option = Conservative Interface Flux
         END
       END
     END
     BOUNDARY: Domain Interface 1 Side 2
       Boundary Type = INTERFACE
       Location = TubeIntFace02
       BOUNDARY CONDITIONS:
         HEAT TRANSFER:
           Option = Conservative Interface Flux
         END
       END
     END
     BOUNDARY: Domain Interface 2 Side 2
       Boundary Type = INTERFACE
       Location = TubeSymFace01
       BOUNDARY CONDITIONS:
         HEAT TRANSFER:
           Option = Conservative Interface Flux
         END
       END
     END
     BOUNDARY: SymmetrieSolid Side 1
       Boundary Type = INTERFACE
       Location = TubeSymFace02
       BOUNDARY CONDITIONS:
         HEAT TRANSFER:
           Option = Conservative Interface Flux
         END
       END
     END
     BOUNDARY: TubeDom Default
       Boundary Type = WALL
       Location = \
         F390.378,F391.378,F392.378,F393.378,F394.378,F676.662,F677.662,F678.6\
         62,F679.662,F680.662
       BOUNDARY CONDITIONS:
         HEAT TRANSFER:
           Option = Adiabatic
         END
       END
     END
     BOUNDARY: TubeOuterWallAdia
       Boundary Type = WALL
       Location = TubeOuterWall01
       BOUNDARY CONDITIONS:
         HEAT TRANSFER:
           Option = Adiabatic
         END
       END
     END
     BOUNDARY: TubeOuterWallHeatex
       Boundary Type = WALL
       Location = TubeOuterWall02
       BOUNDARY CONDITIONS:
         HEAT TRANSFER:
           Fixed Temperature = 283.15 [K]
           Option = Fixed Temperature
         END
       END
     END
     DOMAIN MODELS:
       DOMAIN MOTION:
         Option = Stationary
       END
       MESH DEFORMATION:
         Option = None
       END
     END
     SOLID DEFINITION: Solid 1
       Material = PE100RC
       Option = Material Library
       MORPHOLOGY:
         Option = Continuous Solid
       END
     END
     SOLID MODELS:
       HEAT TRANSFER MODEL:
         Option = Thermal Energy
       END
       THERMAL RADIATION MODEL:
         Option = None
       END
     END
   END
   DOMAIN INTERFACE: Default Fluid Solid Interface
     Boundary List1 = Default Fluid Solid Interface Side 1
     Boundary List2 = Default Fluid Solid Interface Side 2
     Interface Type = Fluid Solid
     INTERFACE MODELS:
       Option = General Connection
       FRAME CHANGE:
         Option = None
       END
       PITCH CHANGE:
         Option = None
       END
     END
     MESH CONNECTION:
       Option = Automatic
     END
   END
   DOMAIN INTERFACE: Domain Interface 1
     Boundary List1 = Domain Interface 1 Side 1
     Boundary List2 = Domain Interface 1 Side 2
     Interface Type = Solid Solid
     INTERFACE MODELS:
       Option = General Connection
       FRAME CHANGE:
         Option = None
       END
       PITCH CHANGE:
         Option = None
       END
     END
     MESH CONNECTION:
       Option = Automatic
     END
   END
   DOMAIN INTERFACE: SymmetrieFluid
     Boundary List1 = Domain Interface 1 Side 1 1
     Boundary List2 = Domain Interface 2 Side 1
     Interface Type = Fluid Fluid
     INTERFACE MODELS:
       Option = Rotational Periodicity
       AXIS DEFINITION:
         Option = Coordinate Axis
         Rotation Axis = Coord 0.1
       END
     END
     MESH CONNECTION:
       Option = GGI
       INTERSECTION CONTROL:
         Option = Direct
         Periodic Axial Radial Tolerance = 0.001
       END
     END
   END
   DOMAIN INTERFACE: SymmetrieSolid
     Boundary List1 = Domain Interface 2 Side 2
     Boundary List2 = SymmetrieSolid Side 1
     Interface Type = Solid Solid
     INTERFACE MODELS:
       Option = Rotational Periodicity
       AXIS DEFINITION:
         Option = Coordinate Axis
         Rotation Axis = Coord 0.1
       END
     END
     MESH CONNECTION:
       Option = Automatic
       INTERSECTION CONTROL:
         Option = Direct
         Periodic Axial Radial Tolerance = 0.0001
       END
     END
   END
   OUTPUT CONTROL:
     MONITOR OBJECTS:
       MONITOR BALANCES:
         Option = Full
       END
       MONITOR FORCES:
         Option = Full
       END
       MONITOR PARTICLES:
         Option = Full
       END
       MONITOR POINT: MP1
         Cartesian Coordinates = 2.5 [m], 0 [m], 0 [m]
         Coord Frame = Coord 0
         Option = Cartesian Coordinates
         Output Variables List = Courant Number,Pressure,Temperature,Velocity
         MONITOR LOCATION CONTROL:
           Interpolation Type = Nearest Vertex
         END
         POSITION UPDATE FREQUENCY:
           Option = Initial Mesh Only
         END
       END
       MONITOR POINT: MP2
         Cartesian Coordinates = 2.5 [m], 0.012 [m], 0 [m]
         Coord Frame = Coord 0
         Option = Cartesian Coordinates
         Output Variables List = Courant Number,Pressure,Temperature,Velocity
         MONITOR LOCATION CONTROL:
           Interpolation Type = Nearest Vertex
         END
         POSITION UPDATE FREQUENCY:
           Option = Initial Mesh Only
         END
       END
       MONITOR POINT: MP3
         Cartesian Coordinates = 2.5 [m], 0.024 [m], 0 [m]
         Coord Frame = Coord 0
         Option = Cartesian Coordinates
         Output Variables List = Courant Number,Pressure,Temperature,Velocity
         MONITOR LOCATION CONTROL:
           Interpolation Type = Nearest Vertex
         END
         POSITION UPDATE FREQUENCY:
           Option = Initial Mesh Only
         END
       END
       MONITOR POINT: MP3_1
         Coord Frame = Coord 0
         Expression Value = DeltaT
         Option = Expression
       END
       MONITOR RESIDUALS:
         Option = Full
       END
       MONITOR TOTALS:
         Option = Full
       END
     END
     RESULTS:
       File Compression Level = Default
       Option = Standard
     END
   END
   SOLVER CONTROL:
     Turbulence Numerics = First Order
     ADVECTION SCHEME:
       Option = High Resolution
     END
     CONVERGENCE CONTROL:
       Length Scale Option = Conservative
       Maximum Number of Iterations = 200
       Minimum Number of Iterations = 1
       Solid Timescale Control = Auto Timescale
       Timescale Control = Auto Timescale
       Timescale Factor = 1.0
     END
     CONVERGENCE CRITERIA:
       Residual Target = 0.000001
       Residual Type = RMS
     END
     DYNAMIC MODEL CONTROL:
       Global Dynamic Model Control = On
     END
   END
 END
 COMMAND FILE:
   Version = 16.0
   Results Version = 15.0.7
 END
 SIMULATION CONTROL:
   EXECUTION CONTROL:
     EXECUTABLE SELECTION:
       Double Precision = Off
     END
     PARALLEL HOST LIBRARY:
       HOST DEFINITION: rd000d3a216dcd
         Host Architecture String = winnt-amd64
         Installation Root = \\hsransys.file.core.windows.net\main\apps\ANSYS \
           Inc\v%v\CFX
       END
     END
     PARTITIONER STEP CONTROL:
       PARTITIONING TYPE:
         Option = MeTiS
         MeTiS Type = k-way
         Partition Size Rule = Automatic
         Partition Weight Factors = 0.00391, 0.00391, 0.00391, 0.00391, \
           0.00391, 0.00391, 0.00391, 0.00391, 0.00391, 0.00391, 0.00391, \
           0.00391, 0.00391, 0.00391, 0.00391, 0.00391, 0.00391, 0.00391, \
           0.00391, 0.00391, 0.00391, 0.00391, 0.00391, 0.00391, 0.00391, \
           0.00391, 0.00391, 0.00391, 0.00391, 0.00391, 0.00391, 0.00391, \
           0.00391, 0.00391, 0.00391, 0.00391, 0.00391, 0.00391, 0.00391, \
           0.00391, 0.00391, 0.00391, 0.00391, 0.00391, 0.00391, 0.00391, \
           0.00391, 0.00391, 0.00391, 0.00391, 0.00391, 0.00391, 0.00391, \
           0.00391, 0.00391, 0.00391, 0.00391, 0.00391, 0.00391, 0.00391, \
           0.00391, 0.00391, 0.00391, 0.00391, 0.00391, 0.00391, 0.00391, \
           0.00391, 0.00391, 0.00391, 0.00391, 0.00391, 0.00391, 0.00391, \
           0.00391, 0.00391, 0.00391, 0.00391, 0.00391, 0.00391, 0.00391, \
           0.00391, 0.00391, 0.00391, 0.00391, 0.00391, 0.00391, 0.00391, \
           0.00391, 0.00391, 0.00391, 0.00391, 0.00391, 0.00391, 0.00391, \
           0.00391, 0.00391, 0.00391, 0.00391, 0.00391, 0.00391, 0.00391, \
           0.00391, 0.00391, 0.00391, 0.00391, 0.00391, 0.00391, 0.00391, \
           0.00391, 0.00391, 0.00391, 0.00391, 0.00391, 0.00391, 0.00391, \
           0.00391, 0.00391, 0.00391, 0.00391, 0.00391, 0.00391, 0.00391, \
           0.00391, 0.00391, 0.00391, 0.00391, 0.00391, 0.00391, 0.00391, \
           0.00391, 0.00391, 0.00391, 0.00391, 0.00391, 0.00391, 0.00391, \
           0.00391, 0.00391, 0.00391, 0.00391, 0.00391, 0.00391, 0.00391, \
           0.00391, 0.00391, 0.00391, 0.00391, 0.00391, 0.00391, 0.00391, \
           0.00391, 0.00391, 0.00391, 0.00391, 0.00391, 0.00391, 0.00391, \
           0.00391, 0.00391, 0.00391, 0.00391, 0.00391, 0.00391, 0.00391, \
           0.00391, 0.00391, 0.00391, 0.00391, 0.00391, 0.00391, 0.00391, \
           0.00391, 0.00391, 0.00391, 0.00391, 0.00391, 0.00391, 0.00391, \
           0.00391, 0.00391, 0.00391, 0.00391, 0.00391, 0.00391, 0.00391, \
           0.00391, 0.00391, 0.00391, 0.00391, 0.00391, 0.00391, 0.00391, \
           0.00391, 0.00391, 0.00391, 0.00391, 0.00391, 0.00391, 0.00391, \
           0.00391, 0.00391, 0.00391, 0.00391, 0.00391, 0.00391, 0.00391, \
           0.00391, 0.00391, 0.00391, 0.00391, 0.00391, 0.00391, 0.00391, \
           0.00391, 0.00391, 0.00391, 0.00391, 0.00391, 0.00391, 0.00391, \
           0.00391, 0.00391, 0.00391, 0.00391, 0.00391, 0.00391, 0.00391, \
           0.00391, 0.00391, 0.00391, 0.00391, 0.00391, 0.00391, 0.00391, \
           0.00391, 0.00391, 0.00391, 0.00391, 0.00391, 0.00391, 0.00391, \
           0.00391, 0.00391, 0.00391, 0.00391, 0.00391, 0.00391, 0.00391, \
           0.00391, 0.00391, 0.00391, 0.00391, 0.00391, 0.00391, 0.00391
       END
     END
     RUN DEFINITION:
       Solver Input File = \
         \\10.10.13.41\C\Resources\directory\8810b9ad626f410f908be9ee09fdbab0.\
         HSR.AzureEE.HpcWorkerRole.jobdata\job-9\pipe01.def
       Run Mode = Full
     END
     SOLVER STEP CONTROL:
       PARALLEL ENVIRONMENT:
         Start Method = MSMPI2
         Number of Processes = 256
         Parallel Host List = rd000d3a216dcd*256
       END
     END
   END
 END
 

 +--------------------------------------------------------------------+
 |                                                                    |
 |                            Partitioning                            |
 |                                                                    |
 +--------------------------------------------------------------------+




 +--------------------------------------------------------------------+
 |                                                                    |
 |                 ANSYS(R) CFX(R) Partitioner 15.0.7                 |
 |                                                                    |
 | Version 2014.04.10-23.00-131675     Thu Apr 10 23:23:37 GMTDT 2014 |
 |                                                                    |
 |                        Executable Attributes                       |
 |                                                                    |
 |          single-64bit-int32-supfort-optimised-noprof-lcomp         |
 |                                                                    |
 | (C) 2014 ANSYS, Inc.                                               |
 |                                                                    |
 | All rights reserved. Unauthorized use, distribution or duplication |
 | is prohibited. This product is subject to U.S. laws governing      |
 | export and re-export. For full Legal Notice, see documentation.    |
 +--------------------------------------------------------------------+




 +--------------------------------------------------------------------+
 |                  Job Information at Start of Run                   |
 +--------------------------------------------------------------------+

 Run mode:       partitioning run

 +------------------------------+------+--------+----------+----------+
 | Host                         | Mesh |  PID   |     Job Started     |
 |                              | Part |        | DD/MM/YY | hh:mm:ss |
 +------------------------------+------+--------+----------+----------+
 | RD000D3A216DCD               |    1 |   1700 | 08/06/15 | 13:50:55 |
 +------------------------------+------+--------+----------+----------+


 +--------------------------------------------------------------------+
 |        Memory Allocated for Run  (Actual usage may be less)        |
 +--------------------------------------------------------------------+

           | Real       | Integer    | Character | Logical  | Double
 ----------+------------+------------+-----------+----------+----------
 Mwords    |      10.43 |      16.05 |      3.39 |     0.12 |     1.20
 Mbytes    |      39.80 |      61.24 |      3.24 |     0.46 |     9.16
 ----------+------------+------------+-----------+----------+----------


 +--------------------------------------------------------------------+
 |                  Host Memory Information (Mbytes)                  |
 +--------------------------------------------------------------------+
 |          Host           |     System     |   Allocated    |   %    |
 +-------------------------+----------------+----------------+--------+
 | RD000D3A216DCD          |     57343.55   |       113.89   |   0.20 |
 +-------------------------+----------------+----------------+--------+

 +--------------------------------------------------------------------+
 |                          Mesh Statistics                           |
 +--------------------------------------------------------------------+

 Domain Name : FluidDom

     Total Number of Nodes                                =      191250

     Total Number of Elements                             =      164780
         Total Number of Prisms                           =         749
         Total Number of Hexahedrons                      =      164031

     Total Number of Faces                                =       52121

 Domain Name : TubeDom

     Total Number of Nodes                                =       64212

     Total Number of Elements                             =       30322
         Total Number of Hexahedrons                      =       30322

     Total Number of Faces                                =       64208
 
 Global Statistics :

     Global Number of Nodes                               =      255462

     Global Number of Elements                            =      195102
         Total Number of Prisms                           =         749
         Total Number of Hexahedrons                      =      194353

     Global Number of Faces                               =      116329

 Domain Interface Name : Default Fluid Solid Interface

     Discretization type                                  =         GGI
     Intersection type                                    =      Direct
     Non-overlap area fraction on side 1                  =    2.39E-01
     Non-overlap area fraction on side 2                  =    2.41E-01

 Domain Interface Name : Domain Interface 1

     Discretization type                                  =         GGI
     Intersection type                                    =      Direct
     Non-overlap area fraction on side 1                  =    7.27E-03
     Non-overlap area fraction on side 2                  =    1.66E-02

 Domain Interface Name : SymmetrieFluid

     Discretization type                                  =         GGI
     Intersection type                                    =      Direct
     Non-overlap area fraction on side 1                  =    0.00E+00
     Non-overlap area fraction on side 2                  =    0.00E+00

 Domain Interface Name : SymmetrieSolid

     Discretization type                                  =         1:1
     Intersection type                                    =      Direct

 +--------------------------------------------------------------------+
 |                     Vertex Based Partitioning                      |
 +--------------------------------------------------------------------+

 Partitioning of domain: FluidDom

 - Partitioning tool:       MeTiS multilevel k-way algorithm
 - Number of partitions:           256
 - Number of graph-nodes:       191250
 - Number of graph-edges:      1255338

 Partitioning of domain: TubeDom

 - Partitioning tool:       MeTiS multilevel k-way algorithm
 - Number of partitions:           256
 - Number of graph-nodes:        60714
 - Number of graph-edges:       304120

 +--------------------------------------------------------------------+
 |                      Partitioning Information                      |
 +--------------------------------------------------------------------+

 Partitioning information for domain: FluidDom

        +------------------+------------------------+-----------------+
        |     Elements     |        Vertices        |     Faces       |
 +------+------------------+------------------------+-----------------+
 | Part |   Number     %   |   Number     %   %Ovlp |  Number     %   |
 +------+------------------+------------------------+-----------------+
 | Full |    164780        |    191250              |    52121        |
 +------+------------------+------------------------+-----------------+
 |    1 |       922    0.4 |      1588    0.4  57.6 |      481    0.4 |
 |    2 |      1210    0.5 |      1795    0.4  51.8 |      301    0.3 |
 |    3 |      1083    0.4 |      1568    0.4  47.8 |      247    0.2 |
 |    4 |      1008    0.4 |      1664    0.4  56.9 |      449    0.4 |
 |    5 |       850    0.3 |      1408    0.3  53.2 |      526    0.5 |
 |    6 |      1069    0.4 |      1712    0.4  56.6 |      459    0.4 |
 |    7 |       992    0.4 |      1608    0.4  54.5 |      530    0.5 |
 |    8 |       912    0.4 |      1481    0.4  51.7 |      522    0.5 |
 |    9 |      1182    0.5 |      1805    0.4  54.8 |      365    0.3 |
 |   10 |       983    0.4 |      1568    0.4  53.6 |      406    0.4 |
 |   11 |      1012    0.4 |      1581    0.4  51.5 |      398    0.4 |
 |   12 |      1122    0.4 |      1829    0.4  58.4 |      463    0.4 |
 |   13 |      1051    0.4 |      1616    0.4  52.2 |      357    0.3 |
 |   14 |      1080    0.4 |      1713    0.4  55.6 |      428    0.4 |
 |   15 |       875    0.3 |      1466    0.4  54.0 |      544    0.5 |
 |   16 |       882    0.3 |      1451    0.4  52.1 |      523    0.5 |
 |   17 |      1048    0.4 |      1673    0.4  54.3 |      431    0.4 |
 |   18 |      1096    0.4 |      1577    0.4  46.3 |      257    0.2 |
 |   19 |       975    0.4 |      1567    0.4  53.7 |      403    0.4 |
 |   20 |      1088    0.4 |      1741    0.4  55.7 |      428    0.4 |
 |   21 |      1096    0.4 |      1768    0.4  58.0 |      455    0.4 |
 |   22 |       907    0.4 |      1507    0.4  55.1 |      532    0.5 |
 |   23 |       803    0.3 |      1360    0.3  53.2 |      549    0.5 |
 |   24 |      1168    0.5 |      1769    0.4  54.0 |      369    0.3 |
 |   25 |      1019    0.4 |      1631    0.4  55.3 |      466    0.4 |
 |   26 |       846    0.3 |      1377    0.3  51.3 |      502    0.5 |
 |   27 |       733    0.3 |      1277    0.3  51.7 |      567    0.5 |
 |   28 |      1058    0.4 |      1665    0.4  53.4 |      464    0.4 |
 |   29 |       911    0.4 |      1540    0.4  54.9 |      469    0.4 |
 |   30 |      1249    0.5 |      1870    0.5  53.9 |      338    0.3 |
 |   31 |       956    0.4 |      1577    0.4  54.5 |      452    0.4 |
 |   32 |      1182    0.5 |      1770    0.4  51.8 |      316    0.3 |
 |   33 |       989    0.4 |      1549    0.4  51.4 |      395    0.4 |
 |   34 |      1168    0.5 |      1804    0.4  56.0 |      365    0.3 |
 |   35 |       797    0.3 |      1352    0.3  52.7 |      537    0.5 |
 |   36 |      1058    0.4 |      1681    0.4  54.4 |      477    0.4 |
 |   37 |       968    0.4 |      1600    0.4  54.9 |      454    0.4 |
 |   38 |      1176    0.5 |      1824    0.4  55.9 |      397    0.4 |
 |   39 |       970    0.4 |      1603    0.4  56.0 |      461    0.4 |
 |   40 |      1104    0.4 |      1576    0.4  45.6 |      248    0.2 |
 |   41 |       946    0.4 |      1640    0.4  58.0 |      504    0.5 |
 |   42 |      1160    0.5 |      1730    0.4  52.6 |      311    0.3 |
 |   43 |      1187    0.5 |      1847    0.5  56.1 |      395    0.4 |
 |   44 |       952    0.4 |      1484    0.4  51.0 |      392    0.4 |
 |   45 |       817    0.3 |      1348    0.3  50.4 |      520    0.5 |
 |   46 |       825    0.3 |      1352    0.3  51.1 |      520    0.5 |
 |   47 |       911    0.4 |      1462    0.4  52.4 |      490    0.4 |
 |   48 |       987    0.4 |      1590    0.4  55.0 |      501    0.5 |
 |   49 |      1073    0.4 |      1675    0.4  52.6 |      410    0.4 |
 |   50 |      1039    0.4 |      1608    0.4  51.1 |      401    0.4 |
 |   51 |      1082    0.4 |      1756    0.4  58.4 |      489    0.4 |
 |   52 |      1189    0.5 |      1795    0.4  53.0 |      358    0.3 |
 |   53 |       973    0.4 |      1642    0.4  56.7 |      487    0.4 |
 |   54 |      1171    0.5 |      1761    0.4  52.3 |      364    0.3 |
 |   55 |      1088    0.4 |      1722    0.4  54.7 |      469    0.4 |
 |   56 |       725    0.3 |      1245    0.3  50.8 |      538    0.5 |
 |   57 |      1108    0.4 |      1582    0.4  46.0 |      238    0.2 |
 |   58 |       990    0.4 |      1637    0.4  55.6 |      466    0.4 |
 |   59 |       778    0.3 |      1337    0.3  52.9 |      564    0.5 |
 |   60 |       996    0.4 |      1573    0.4  52.4 |      505    0.5 |
 |   61 |       967    0.4 |      1540    0.4  51.5 |      408    0.4 |
 |   62 |      1166    0.5 |      1861    0.5  57.9 |      422    0.4 |
 |   63 |      1084    0.4 |      1625    0.4  50.0 |      375    0.3 |
 |   64 |      1062    0.4 |      1713    0.4  57.0 |      453    0.4 |
 |   65 |      1133    0.4 |      1896    0.5  60.3 |      519    0.5 |
 |   66 |       844    0.3 |      1364    0.3  49.8 |      508    0.5 |
 |   67 |       888    0.3 |      1446    0.4  51.0 |      523    0.5 |
 |   68 |       965    0.4 |      1577    0.4  54.0 |      534    0.5 |
 |   69 |       928    0.4 |      1536    0.4  54.4 |      433    0.4 |
 |   70 |      1210    0.5 |      1799    0.4  52.5 |      322    0.3 |
 |   71 |      1099    0.4 |      1606    0.4  48.0 |      327    0.3 |
 |   72 |       968    0.4 |      1553    0.4  52.5 |      433    0.4 |
 |   73 |      1198    0.5 |      1806    0.4  53.4 |      345    0.3 |
 |   74 |      1066    0.4 |      1678    0.4  53.7 |      459    0.4 |
 |   75 |       768    0.3 |      1342    0.3  53.9 |      573    0.5 |
 |   76 |       930    0.4 |      1494    0.4  51.3 |      513    0.5 |
 |   77 |      1049    0.4 |      1586    0.4  49.6 |      381    0.3 |
 |   78 |      1022    0.4 |      1625    0.4  52.8 |      422    0.4 |
 |   79 |      1175    0.5 |      1829    0.4  56.9 |      401    0.4 |
 |   80 |       948    0.4 |      1496    0.4  51.3 |      397    0.4 |
 |   81 |      1000    0.4 |      1551    0.4  49.7 |      399    0.4 |
 |   82 |      1066    0.4 |      1696    0.4  56.5 |      429    0.4 |
 |   83 |       823    0.3 |      1375    0.3  52.1 |      536    0.5 |
 |   84 |       912    0.4 |      1483    0.4  53.1 |      508    0.5 |
 |   85 |       925    0.4 |      1502    0.4  52.1 |      439    0.4 |
 |   86 |      1244    0.5 |      1903    0.5  55.5 |      381    0.3 |
 |   87 |      1131    0.4 |      1631    0.4  47.5 |      258    0.2 |
 |   88 |      1035    0.4 |      1720    0.4  58.4 |      483    0.4 |
 |   89 |      1124    0.4 |      1770    0.4  55.0 |      422    0.4 |
 |   90 |      1044    0.4 |      1565    0.4  50.0 |      280    0.3 |
 |   91 |      1011    0.4 |      1590    0.4  51.6 |      392    0.4 |
 |   92 |      1094    0.4 |      1719    0.4  54.6 |      419    0.4 |
 |   93 |      1058    0.4 |      1772    0.4  59.7 |      478    0.4 |
 |   94 |       940    0.4 |      1515    0.4  52.7 |      520    0.5 |
 |   95 |       784    0.3 |      1307    0.3  51.0 |      517    0.5 |
 |   96 |      1024    0.4 |      1627    0.4  54.7 |      446    0.4 |
 |   97 |       938    0.4 |      1570    0.4  55.9 |      448    0.4 |
 |   98 |      1258    0.5 |      1953    0.5  57.6 |      386    0.3 |
 |   99 |      1074    0.4 |      1599    0.4  50.1 |      267    0.2 |
 |  100 |       980    0.4 |      1611    0.4  54.2 |      459    0.4 |
 |  101 |      1062    0.4 |      1676    0.4  55.7 |      454    0.4 |
 |  102 |       770    0.3 |      1346    0.3  54.2 |      566    0.5 |
 |  103 |       915    0.4 |      1477    0.4  52.4 |      503    0.5 |
 |  104 |      1218    0.5 |      1893    0.5  57.8 |      363    0.3 |
 |  105 |      1000    0.4 |      1569    0.4  52.3 |      384    0.3 |
 |  106 |      1174    0.5 |      1864    0.5  57.8 |      428    0.4 |
 |  107 |       878    0.3 |      1412    0.3  50.8 |      491    0.4 |
 |  108 |       849    0.3 |      1385    0.3  51.9 |      501    0.5 |
 |  109 |       968    0.4 |      1539    0.4  51.9 |      411    0.4 |
 |  110 |      1169    0.5 |      1803    0.4  56.4 |      361    0.3 |
 |  111 |      1062    0.4 |      1616    0.4  50.3 |      383    0.3 |
 |  112 |       979    0.4 |      1531    0.4  52.0 |      386    0.3 |
 |  113 |      1032    0.4 |      1686    0.4  55.8 |      445    0.4 |
 |  114 |       925    0.4 |      1450    0.4  46.5 |      425    0.4 |
 |  115 |       993    0.4 |      1628    0.4  54.4 |      456    0.4 |
 |  116 |      1151    0.4 |      1663    0.4  47.9 |      249    0.2 |
 |  117 |       858    0.3 |      1401    0.3  49.8 |      523    0.5 |
 |  118 |       993    0.4 |      1566    0.4  50.3 |      458    0.4 |
 |  119 |      1063    0.4 |      1694    0.4  55.1 |      468    0.4 |
 |  120 |       764    0.3 |      1300    0.3  51.9 |      531    0.5 |
 |  121 |       966    0.4 |      1551    0.4  53.2 |      498    0.5 |
 |  122 |      1129    0.4 |      1821    0.4  57.6 |      478    0.4 |
 |  123 |       969    0.4 |      1539    0.4  52.6 |      489    0.4 |
 |  124 |       729    0.3 |      1278    0.3  52.9 |      571    0.5 |
 |  125 |      1185    0.5 |      1801    0.4  53.4 |      367    0.3 |
 |  126 |       997    0.4 |      1583    0.4  52.7 |      415    0.4 |
 |  127 |       965    0.4 |      1648    0.4  56.8 |      493    0.4 |
 |  128 |      1114    0.4 |      1596    0.4  46.1 |      247    0.2 |
 |  129 |       994    0.4 |      1498    0.4  47.7 |      370    0.3 |
 |  130 |      1061    0.4 |      1563    0.4  47.5 |      344    0.3 |
 |  131 |       995    0.4 |      1625    0.4  55.6 |      421    0.4 |
 |  132 |      1076    0.4 |      1660    0.4  52.3 |      384    0.3 |
 |  133 |      1037    0.4 |      1663    0.4  55.9 |      450    0.4 |
 |  134 |       772    0.3 |      1263    0.3  47.7 |      489    0.4 |
 |  135 |      1145    0.4 |      1826    0.4  58.4 |      431    0.4 |
 |  136 |       788    0.3 |      1305    0.3  50.6 |      506    0.5 |
 |  137 |      1085    0.4 |      1568    0.4  46.7 |      239    0.2 |
 |  138 |       991    0.4 |      1685    0.4  58.3 |      483    0.4 |
 |  139 |       783    0.3 |      1301    0.3  50.7 |      506    0.5 |
 |  140 |      1016    0.4 |      1646    0.4  55.8 |      472    0.4 |
 |  141 |       936    0.4 |      1520    0.4  52.8 |      426    0.4 |
 |  142 |      1147    0.4 |      1797    0.4  56.3 |      394    0.4 |
 |  143 |      1145    0.4 |      1784    0.4  56.4 |      387    0.3 |
 |  144 |      1043    0.4 |      1631    0.4  51.8 |      362    0.3 |
 |  145 |      1010    0.4 |      1515    0.4  47.5 |      364    0.3 |
 |  146 |      1049    0.4 |      1630    0.4  52.6 |      441    0.4 |
 |  147 |      1027    0.4 |      1619    0.4  52.3 |      462    0.4 |
 |  148 |       734    0.3 |      1289    0.3  51.6 |      585    0.5 |
 |  149 |      1119    0.4 |      1650    0.4  50.5 |      280    0.3 |
 |  150 |       905    0.4 |      1501    0.4  54.0 |      438    0.4 |
 |  151 |      1094    0.4 |      1601    0.4  47.3 |      268    0.2 |
 |  152 |       990    0.4 |      1656    0.4  57.5 |      452    0.4 |
 |  153 |      1063    0.4 |      1597    0.4  49.5 |      378    0.3 |
 |  154 |       902    0.4 |      1465    0.4  52.0 |      420    0.4 |
 |  155 |       944    0.4 |      1497    0.4  51.4 |      399    0.4 |
 |  156 |      1170    0.5 |      1846    0.5  56.6 |      418    0.4 |
 |  157 |      1008    0.4 |      1596    0.4  53.3 |      455    0.4 |
 |  158 |       749    0.3 |      1312    0.3  52.6 |      574    0.5 |
 |  159 |      1010    0.4 |      1564    0.4  52.5 |      419    0.4 |
 |  160 |      1197    0.5 |      1839    0.5  54.4 |      373    0.3 |
 |  161 |       961    0.4 |      1521    0.4  52.7 |      474    0.4 |
 |  162 |       836    0.3 |      1396    0.3  51.9 |      550    0.5 |
 |  163 |      1042    0.4 |      1750    0.4  59.3 |      511    0.5 |
 |  164 |       829    0.3 |      1334    0.3  49.7 |      487    0.4 |
 |  165 |      1037    0.4 |      1668    0.4  55.7 |      421    0.4 |
 |  166 |      1113    0.4 |      1648    0.4  49.4 |      337    0.3 |
 |  167 |       990    0.4 |      1563    0.4  51.8 |      385    0.3 |
 |  168 |      1162    0.5 |      1767    0.4  54.7 |      320    0.3 |
 |  169 |      1068    0.4 |      1669    0.4  52.1 |      382    0.3 |
 |  170 |      1076    0.4 |      1675    0.4  52.4 |      370    0.3 |
 |  171 |      1074    0.4 |      1555    0.4  47.4 |      233    0.2 |
 |  172 |       967    0.4 |      1586    0.4  54.7 |      426    0.4 |
 |  173 |       780    0.3 |      1291    0.3  49.6 |      509    0.5 |
 |  174 |      1041    0.4 |      1696    0.4  56.7 |      458    0.4 |
 |  175 |      1034    0.4 |      1633    0.4  53.9 |      454    0.4 |
 |  176 |       812    0.3 |      1353    0.3  51.4 |      522    0.5 |
 |  177 |      1069    0.4 |      1669    0.4  53.3 |      452    0.4 |
 |  178 |       738    0.3 |      1252    0.3  48.6 |      537    0.5 |
 |  179 |      1093    0.4 |      1607    0.4  49.0 |      238    0.2 |
 |  180 |      1005    0.4 |      1650    0.4  55.0 |      449    0.4 |
 |  181 |      1109    0.4 |      1598    0.4  46.3 |      247    0.2 |
 |  182 |       961    0.4 |      1624    0.4  57.0 |      472    0.4 |
 |  183 |      1034    0.4 |      1582    0.4  50.1 |      383    0.3 |
 |  184 |      1069    0.4 |      1734    0.4  56.3 |      468    0.4 |
 |  185 |       905    0.4 |      1480    0.4  53.2 |      517    0.5 |
 |  186 |       889    0.3 |      1457    0.4  52.9 |      507    0.5 |
 |  187 |       830    0.3 |      1347    0.3  50.5 |      484    0.4 |
 |  188 |      1075    0.4 |      1754    0.4  58.9 |      499    0.5 |
 |  189 |       928    0.4 |      1605    0.4  58.1 |      481    0.4 |
 |  190 |      1118    0.4 |      1593    0.4  46.0 |      222    0.2 |
 |  191 |      1064    0.4 |      1590    0.4  48.7 |      372    0.3 |
 |  192 |      1027    0.4 |      1525    0.4  47.0 |      359    0.3 |
 |  193 |      1110    0.4 |      1611    0.4  48.0 |      227    0.2 |
 |  194 |       959    0.4 |      1531    0.4  52.4 |      393    0.4 |
 |  195 |      1203    0.5 |      1833    0.4  54.2 |      347    0.3 |
 |  196 |       953    0.4 |      1586    0.4  54.8 |      441    0.4 |
 |  197 |      1206    0.5 |      1871    0.5  56.2 |      407    0.4 |
 |  198 |       835    0.3 |      1368    0.3  49.3 |      516    0.5 |
 |  199 |      1079    0.4 |      1799    0.4  59.1 |      502    0.5 |
 |  200 |       809    0.3 |      1330    0.3  49.6 |      519    0.5 |
 |  201 |       818    0.3 |      1319    0.3  48.2 |      494    0.4 |
 |  202 |      1152    0.4 |      1863    0.5  57.6 |      456    0.4 |
 |  203 |      1064    0.4 |      1688    0.4  54.2 |      453    0.4 |
 |  204 |       757    0.3 |      1257    0.3  48.8 |      511    0.5 |
 |  205 |      1093    0.4 |      1630    0.4  49.7 |      345    0.3 |
 |  206 |      1084    0.4 |      1695    0.4  53.2 |      385    0.3 |
 |  207 |      1004    0.4 |      1614    0.4  52.9 |      435    0.4 |
 |  208 |      1087    0.4 |      1679    0.4  52.2 |      379    0.3 |
 |  209 |      1066    0.4 |      1707    0.4  55.9 |      475    0.4 |
 |  210 |       865    0.3 |      1472    0.4  55.5 |      566    0.5 |
 |  211 |      1036    0.4 |      1619    0.4  54.4 |      418    0.4 |
 |  212 |       751    0.3 |      1294    0.3  51.9 |      553    0.5 |
 |  213 |      1093    0.4 |      1562    0.4  45.8 |      234    0.2 |
 |  214 |       990    0.4 |      1640    0.4  55.3 |      450    0.4 |
 |  215 |      1227    0.5 |      1859    0.5  54.1 |      335    0.3 |
 |  216 |       865    0.3 |      1460    0.4  54.2 |      451    0.4 |
 |  217 |      1091    0.4 |      1693    0.4  54.0 |      384    0.3 |
 |  218 |      1036    0.4 |      1656    0.4  55.3 |      468    0.4 |
 |  219 |       731    0.3 |      1260    0.3  51.6 |      529    0.5 |
 |  220 |      1032    0.4 |      1639    0.4  54.5 |      448    0.4 |
 |  221 |      1006    0.4 |      1588    0.4  52.8 |      420    0.4 |
 |  222 |      1100    0.4 |      1674    0.4  51.4 |      366    0.3 |
 |  223 |       983    0.4 |      1570    0.4  53.5 |      383    0.3 |
 |  224 |      1109    0.4 |      1695    0.4  54.0 |      369    0.3 |
 |  225 |       885    0.3 |      1437    0.4  50.6 |      522    0.5 |
 |  226 |       952    0.4 |      1587    0.4  56.3 |      548    0.5 |
 |  227 |      1106    0.4 |      1806    0.4  57.8 |      479    0.4 |
 |  228 |       894    0.3 |      1451    0.4  51.4 |      517    0.5 |
 |  229 |       930    0.4 |      1546    0.4  54.8 |      452    0.4 |
 |  230 |      1160    0.5 |      1740    0.4  52.1 |      342    0.3 |
 |  231 |      1012    0.4 |      1659    0.4  56.7 |      445    0.4 |
 |  232 |      1100    0.4 |      1615    0.4  48.2 |      278    0.3 |
 |  233 |      1045    0.4 |      1609    0.4  51.0 |      408    0.4 |
 |  234 |      1130    0.4 |      1691    0.4  50.8 |      370    0.3 |
 |  235 |      1143    0.4 |      1830    0.4  57.3 |      438    0.4 |
 |  236 |      1054    0.4 |      1618    0.4  51.8 |      368    0.3 |
 |  237 |      1058    0.4 |      1700    0.4  56.2 |      464    0.4 |
 |  238 |       897    0.3 |      1467    0.4  52.3 |      535    0.5 |
 |  239 |      1034    0.4 |      1633    0.4  53.8 |      460    0.4 |
 |  240 |       810    0.3 |      1396    0.3  53.2 |      567    0.5 |
 |  241 |       774    0.3 |      1321    0.3  50.6 |      566    0.5 |
 |  242 |      1017    0.4 |      1653    0.4  55.1 |      534    0.5 |
 |  243 |      1197    0.5 |      1895    0.5  57.5 |      410    0.4 |
 |  244 |      1033    0.4 |      1626    0.4  54.4 |      441    0.4 |
 |  245 |      1031    0.4 |      1589    0.4  50.3 |      382    0.3 |
 |  246 |       989    0.4 |      1524    0.4  49.3 |      391    0.4 |
 |  247 |       902    0.4 |      1456    0.4  51.8 |      419    0.4 |
 |  248 |      1197    0.5 |      1810    0.4  54.4 |      350    0.3 |
 |  249 |       764    0.3 |      1331    0.3  52.0 |      590    0.5 |
 |  250 |       988    0.4 |      1561    0.4  53.3 |      500    0.5 |
 |  251 |       989    0.4 |      1548    0.4  49.3 |      444    0.4 |
 |  252 |       818    0.3 |      1354    0.3  47.2 |      477    0.4 |
 |  253 |       976    0.4 |      1610    0.4  55.6 |      447    0.4 |
 |  254 |      1089    0.4 |      1581    0.4  48.1 |      243    0.2 |
 |  255 |      1164    0.5 |      1820    0.4  56.9 |      396    0.4 |
 |  256 |       986    0.4 |      1559    0.4  51.4 |      411    0.4 |
 +------+------------------+------------------------+-----------------+
 | Min  |       725    0.3 |      1245    0.3  48.4 |      222    0.2 |
 |(part)|           (   56)|           (   56   134)|          (  190)|
 +------+------------------+------------------------+-----------------+
 | Max  |      1258    0.5 |      1953    0.5  58.6 |      590    0.5 |
 |(part)|           (   98)|           (   98    65)|          (  249)|
 +------+------------------+------------------------+-----------------+
 | Ave  |      1006    0.4 |      1595    0.4  53.2 |      432    0.4 |
 +------+------------------+------------------------+-----------------+
 | Sum  |    257446  100.0 |    408213  100.0  53.1 |   110581  100.0 |
 +------+------------------+------------------------+-----------------+

 Partitioning information for domain: TubeDom

        +------------------+------------------------+-----------------+
        |     Elements     |        Vertices        |     Faces       |
 +------+------------------+------------------------+-----------------+
 | Part |   Number     %   |   Number     %   %Ovlp |  Number     %   |
 +------+------------------+------------------------+-----------------+
 | Full |     30322        |     64212              |    64208        |
 +------+------------------+------------------------+-----------------+
 |    1 |       362    0.4 |       920    0.5  72.4 |      576    0.5 |
 |    2 |       434    0.5 |      1022    0.5  75.9 |      596    0.5 |
 |    3 |       571    0.7 |      1288    0.7  80.1 |      726    0.6 |
 |    4 |       328    0.4 |       836    0.4  69.4 |      535    0.4 |
 |    5 |       140    0.2 |       344    0.2  25.6 |      300    0.2 |
 |    6 |       140    0.2 |       340    0.2  25.9 |      296    0.2 |
 |    7 |       140    0.2 |       338    0.2  24.9 |      296    0.2 |
 |    8 |       138    0.2 |       334    0.2  26.3 |      290    0.2 |
 |    9 |       140    0.2 |       336    0.2  26.2 |      292    0.2 |
 |   10 |       487    0.6 |      1116    0.6  77.4 |      675    0.5 |
 |   11 |       543    0.7 |      1250    0.6  80.0 |      746    0.6 |
 |   12 |       287    0.4 |       708    0.4  65.5 |      457    0.4 |
 |   13 |       566    0.7 |      1288    0.7  81.1 |      739    0.6 |
 |   14 |       327    0.4 |       818    0.4  70.2 |      516    0.4 |
 |   15 |       143    0.2 |       364    0.2  31.9 |      304    0.2 |
 |   16 |       142    0.2 |       368    0.2  32.6 |      306    0.2 |
 |   17 |       351    0.4 |       860    0.4  70.7 |      540    0.4 |
 |   18 |       566    0.7 |      1288    0.7  80.3 |      721    0.6 |
 |   19 |       574    0.7 |      1314    0.7  80.8 |      769    0.6 |
 |   20 |       395    0.5 |       976    0.5  74.0 |      598    0.5 |
 |   21 |       138    0.2 |       334    0.2  25.7 |      292    0.2 |
 |   22 |       135    0.2 |       334    0.2  26.9 |      288    0.2 |
 |   23 |       135    0.2 |       332    0.2  26.5 |      288    0.2 |
 |   24 |       334    0.4 |       802    0.4  69.1 |      502    0.4 |
 |   25 |       136    0.2 |       338    0.2  27.2 |      292    0.2 |
 |   26 |       140    0.2 |       336    0.2  27.4 |      290    0.2 |
 |   27 |       141    0.2 |       342    0.2  25.7 |      298    0.2 |
 |   28 |       137    0.2 |       332    0.2  25.3 |      290    0.2 |
 |   29 |       534    0.7 |      1248    0.6  79.4 |      747    0.6 |
 |   30 |       314    0.4 |       744    0.4  66.1 |      469    0.4 |
 |   31 |       375    0.5 |       946    0.5  72.8 |      591    0.5 |
 |   32 |       551    0.7 |      1262    0.7  79.9 |      713    0.6 |
 |   33 |       546    0.7 |      1250    0.6  80.3 |      743    0.6 |
 |   34 |       141    0.2 |       336    0.2  23.8 |      296    0.2 |
 |   35 |       148    0.2 |       358    0.2  28.2 |      307    0.2 |
 |   36 |       140    0.2 |       348    0.2  26.4 |      302    0.2 |
 |   37 |       486    0.6 |      1188    0.6  79.3 |      697    0.6 |
 |   38 |       339    0.4 |       812    0.4  68.7 |      498    0.4 |
 |   39 |       283    0.3 |       722    0.4  64.4 |      481    0.4 |
 |   40 |       586    0.7 |      1326    0.7  81.0 |      741    0.6 |
 |   41 |       435    0.5 |      1080    0.6  76.5 |      654    0.5 |
 |   42 |       495    0.6 |      1132    0.6  77.4 |      652    0.5 |
 |   43 |       139    0.2 |       340    0.2  25.9 |      296    0.2 |
 |   44 |       542    0.7 |      1230    0.6  80.0 |      737    0.6 |
 |   45 |       137    0.2 |       330    0.2  25.5 |      288    0.2 |
 |   46 |       141    0.2 |       350    0.2  27.4 |      302    0.2 |
 |   47 |       141    0.2 |       342    0.2  28.1 |      294    0.2 |
 |   48 |       137    0.2 |       338    0.2  27.2 |      292    0.2 |
 |   49 |       444    0.5 |      1068    0.6  76.4 |      651    0.5 |
 |   50 |       459    0.6 |      1056    0.5  76.9 |      642    0.5 |
 |   51 |       138    0.2 |       332    0.2  25.3 |      290    0.2 |
 |   52 |       475    0.6 |      1096    0.6  77.7 |      625    0.5 |
 |   53 |       509    0.6 |      1218    0.6  79.0 |      730    0.6 |
 |   54 |       443    0.5 |      1020    0.5  75.3 |      597    0.5 |
 |   55 |       135    0.2 |       330    0.2  25.5 |      288    0.2 |
 |   56 |       140    0.2 |       334    0.2  24.6 |      294    0.2 |
 |   57 |       531    0.7 |      1216    0.6  79.9 |      683    0.5 |
 |   58 |       352    0.4 |       872    0.5  71.6 |      548    0.4 |
 |   59 |       134    0.2 |       322    0.2  23.6 |      284    0.2 |
 |   60 |       149    0.2 |       364    0.2  29.7 |      310    0.2 |
 |   61 |       583    0.7 |      1332    0.7  81.8 |      782    0.6 |
 |   62 |       207    0.3 |       544    0.3  52.9 |      392    0.3 |
 |   63 |       465    0.6 |      1074    0.6  77.2 |      647    0.5 |
 |   64 |       137    0.2 |       332    0.2  26.8 |      286    0.2 |
 |   65 |       144    0.2 |       348    0.2  25.3 |      304    0.2 |
 |   66 |       140    0.2 |       338    0.2  24.9 |      296    0.2 |
 |   67 |       147    0.2 |       354    0.2  28.2 |      304    0.2 |
 |   68 |       142    0.2 |       348    0.2  26.4 |      302    0.2 |
 |   69 |       442    0.5 |      1082    0.6  76.0 |      653    0.5 |
 |   70 |       418    0.5 |       970    0.5  73.0 |      580    0.5 |
 |   71 |       444    0.5 |      1024    0.5  74.6 |      639    0.5 |
 |   72 |       482    0.6 |      1110    0.6  77.5 |      680    0.5 |
 |   73 |       378    0.5 |       894    0.5  70.9 |      544    0.4 |
 |   74 |       145    0.2 |       348    0.2  25.3 |      304    0.2 |
 |   75 |       140    0.2 |       338    0.2  23.7 |      298    0.2 |
 |   76 |       140    0.2 |       336    0.2  23.8 |      296    0.2 |
 |   77 |       451    0.6 |      1048    0.5  75.2 |      648    0.5 |
 |   78 |       499    0.6 |      1166    0.6  78.7 |      699    0.6 |
 |   79 |       139    0.2 |       332    0.2  22.9 |      294    0.2 |
 |   80 |       511    0.6 |      1166    0.6  77.9 |      707    0.6 |
 |   81 |       473    0.6 |      1126    0.6  78.2 |      684    0.5 |
 |   82 |       150    0.2 |       354    0.2  29.4 |      300    0.2 |
 |   83 |       138    0.2 |       338    0.2  26.0 |      294    0.2 |
 |   84 |       139    0.2 |       340    0.2  27.1 |      294    0.2 |
 |   85 |       524    0.6 |      1210    0.6  78.8 |      734    0.6 |
 |   86 |       142    0.2 |       338    0.2  23.7 |      298    0.2 |
 |   87 |       590    0.7 |      1340    0.7  80.4 |      752    0.6 |
 |   88 |       358    0.4 |       888    0.5  70.9 |      553    0.4 |
 |   89 |       281    0.3 |       718    0.4  64.9 |      472    0.4 |
 |   90 |       658    0.8 |      1484    0.8  83.3 |      814    0.6 |
 |   91 |       606    0.7 |      1368    0.7  81.1 |      804    0.6 |
 |   92 |       303    0.4 |       766    0.4  67.4 |      497    0.4 |
 |   93 |       271    0.3 |       694    0.4  62.5 |      468    0.4 |
 |   94 |       143    0.2 |       346    0.2  24.3 |      304    0.2 |
 |   95 |       139    0.2 |       334    0.2  25.1 |      292    0.2 |
 |   96 |       139    0.2 |       338    0.2  24.9 |      296    0.2 |
 |   97 |       565    0.7 |      1348    0.7  81.0 |      784    0.6 |
 |   98 |       266    0.3 |       648    0.3  60.5 |      426    0.3 |
 |   99 |       599    0.7 |      1376    0.7  82.0 |      754    0.6 |
 |  100 |       516    0.6 |      1254    0.6  80.2 |      732    0.6 |
 |  101 |       141    0.2 |       350    0.2  29.7 |      298    0.2 |
 |  102 |       140    0.2 |       360    0.2  32.5 |      298    0.2 |
 |  103 |       143    0.2 |       344    0.2  25.6 |      300    0.2 |
 |  104 |       143    0.2 |       352    0.2  27.3 |      304    0.2 |
 |  105 |       543    0.7 |      1242    0.6  79.2 |      731    0.6 |
 |  106 |       146    0.2 |       352    0.2  26.1 |      306    0.2 |
 |  107 |       141    0.2 |       342    0.2  25.7 |      298    0.2 |
 |  108 |       143    0.2 |       344    0.2  24.4 |      302    0.2 |
 |  109 |       513    0.6 |      1192    0.6  79.3 |      712    0.6 |
 |  110 |       136    0.2 |       324    0.2  23.1 |      288    0.2 |
 |  111 |       454    0.6 |      1058    0.5  76.4 |      643    0.5 |
 |  112 |       517    0.6 |      1190    0.6  78.2 |      718    0.6 |
 |  113 |       284    0.3 |       734    0.4  66.8 |      480    0.4 |
 |  114 |       533    0.7 |      1208    0.6  79.5 |      731    0.6 |
 |  115 |       409    0.5 |      1002    0.5  75.6 |      607    0.5 |
 |  116 |       552    0.7 |      1260    0.7  79.7 |      709    0.6 |
 |  117 |       136    0.2 |       324    0.2  22.2 |      288    0.2 |
 |  118 |       136    0.2 |       324    0.2  22.5 |      288    0.2 |
 |  119 |       135    0.2 |       360    0.2  32.5 |      298    0.2 |
 |  120 |       148    0.2 |       352    0.2  31.0 |      294    0.2 |
 |  121 |       135    0.2 |       330    0.2  26.1 |      286    0.2 |
 |  122 |       139    0.2 |       336    0.2  25.0 |      294    0.2 |
 |  123 |       144    0.2 |       348    0.2  26.4 |      302    0.2 |
 |  124 |       140    0.2 |       338    0.2  24.3 |      298    0.2 |
 |  125 |       347    0.4 |       816    0.4  68.6 |      503    0.4 |
 |  126 |       525    0.6 |      1210    0.6  79.8 |      721    0.6 |
 |  127 |       306    0.4 |       808    0.4  69.3 |      520    0.4 |
 |  128 |       516    0.6 |      1178    0.6  78.5 |      670    0.5 |
 |  129 |       467    0.6 |      1078    0.6  76.4 |      664    0.5 |
 |  130 |       531    0.7 |      1204    0.6  78.7 |      718    0.6 |
 |  131 |       549    0.7 |      1294    0.7  81.0 |      746    0.6 |
 |  132 |       468    0.6 |      1118    0.6  78.0 |      660    0.5 |
 |  133 |       140    0.2 |       338    0.2  26.0 |      294    0.2 |
 |  134 |       135    0.2 |       328    0.2  25.6 |      286    0.2 |
 |  135 |       140    0.2 |       342    0.2  26.9 |      296    0.2 |
 |  136 |       141    0.2 |       342    0.2  26.9 |      296    0.2 |
 |  137 |       657    0.8 |      1484    0.8  83.4 |      812    0.6 |
 |  138 |       308    0.4 |       828    0.4  70.5 |      526    0.4 |
 |  139 |       154    0.2 |       364    0.2  29.7 |      308    0.2 |
 |  140 |       141    0.2 |       382    0.2  33.5 |      316    0.3 |
 |  141 |       630    0.8 |      1444    0.7  82.3 |      844    0.7 |
 |  142 |       141    0.2 |       366    0.2  30.9 |      306    0.2 |
 |  143 |       307    0.4 |       726    0.4  64.6 |      461    0.4 |
 |  144 |       680    0.8 |      1574    0.8  84.0 |      885    0.7 |
 |  145 |       495    0.6 |      1156    0.6  78.5 |      693    0.6 |
 |  146 |       152    0.2 |       360    0.2  30.0 |      304    0.2 |
 |  147 |       137    0.2 |       360    0.2  31.1 |      302    0.2 |
 |  148 |       154    0.2 |       362    0.2  29.0 |      307    0.2 |
 |  149 |       497    0.6 |      1166    0.6  78.3 |      680    0.5 |
 |  150 |       492    0.6 |      1224    0.6  80.1 |      724    0.6 |
 |  151 |       637    0.8 |      1466    0.8  83.2 |      809    0.6 |
 |  152 |       268    0.3 |       716    0.4  65.9 |      470    0.4 |
 |  153 |       461    0.6 |      1060    0.5  75.9 |      644    0.5 |
 |  154 |       559    0.7 |      1310    0.7  81.1 |      775    0.6 |
 |  155 |       584    0.7 |      1338    0.7  81.8 |      786    0.6 |
 |  156 |       189    0.2 |       498    0.3  48.4 |      368    0.3 |
 |  157 |       139    0.2 |       358    0.2  30.2 |      302    0.2 |
 |  158 |       154    0.2 |       364    0.2  29.7 |      308    0.2 |
 |  159 |       148    0.2 |       350    0.2  29.7 |      296    0.2 |
 |  160 |       140    0.2 |       370    0.2  30.5 |      311    0.2 |
 |  161 |       144    0.2 |       356    0.2  28.1 |      306    0.2 |
 |  162 |       143    0.2 |       350    0.2  28.6 |      300    0.2 |
 |  163 |       217    0.3 |       576    0.3  55.6 |      408    0.3 |
 |  164 |       148    0.2 |       358    0.2  28.5 |      307    0.2 |
 |  165 |       431    0.5 |      1048    0.5  75.5 |      628    0.5 |
 |  166 |       475    0.6 |      1126    0.6  77.9 |      657    0.5 |
 |  167 |       598    0.7 |      1384    0.7  81.8 |      803    0.6 |
 |  168 |       148    0.2 |       352    0.2  30.7 |      296    0.2 |
 |  169 |       439    0.5 |      1088    0.6  76.7 |      644    0.5 |
 |  170 |       455    0.6 |      1084    0.6  77.5 |      636    0.5 |
 |  171 |       537    0.7 |      1234    0.6  80.1 |      692    0.5 |
 |  172 |       446    0.5 |      1100    0.6  77.6 |      657    0.5 |
 |  173 |       152    0.2 |       360    0.2  30.0 |      304    0.2 |
 |  174 |       137    0.2 |       358    0.2  31.3 |      300    0.2 |
 |  175 |       138    0.2 |       336    0.2  27.4 |      290    0.2 |
 |  176 |       138    0.2 |       340    0.2  28.2 |      292    0.2 |
 |  177 |       138    0.2 |       362    0.2  29.8 |      306    0.2 |
 |  178 |       149    0.2 |       352    0.2  29.8 |      297    0.2 |
 |  179 |       599    0.7 |      1378    0.7  81.7 |      760    0.6 |
 |  180 |       353    0.4 |       902    0.5  72.7 |      562    0.4 |
 |  181 |       570    0.7 |      1316    0.7  81.3 |      731    0.6 |
 |  182 |       340    0.4 |       872    0.5  70.6 |      555    0.4 |
 |  183 |       498    0.6 |      1148    0.6  78.8 |      686    0.5 |
 |  184 |       137    0.2 |       358    0.2  31.3 |      300    0.2 |
 |  185 |       144    0.2 |       354    0.2  30.5 |      298    0.2 |
 |  186 |       140    0.2 |       354    0.2  30.5 |      298    0.2 |
 |  187 |       149    0.2 |       352    0.2  29.5 |      298    0.2 |
 |  188 |       142    0.2 |       372    0.2  31.2 |      312    0.2 |
 |  189 |       367    0.5 |       918    0.5  72.3 |      574    0.5 |
 |  190 |       539    0.7 |      1260    0.7  80.0 |      709    0.6 |
 |  191 |       399    0.5 |       948    0.5  74.3 |      583    0.5 |
 |  192 |       464    0.6 |      1084    0.6  76.9 |      660    0.5 |
 |  193 |       562    0.7 |      1326    0.7  82.1 |      732    0.6 |
 |  194 |       587    0.7 |      1374    0.7  82.7 |      800    0.6 |
 |  195 |       379    0.5 |       914    0.5  72.6 |      546    0.4 |
 |  196 |       583    0.7 |      1388    0.7  81.6 |      802    0.6 |
 |  197 |       143    0.2 |       352    0.2  30.7 |      298    0.2 |
 |  198 |       140    0.2 |       350    0.2  28.6 |      300    0.2 |
 |  199 |       247    0.3 |       624    0.3  59.0 |      428    0.3 |
 |  200 |       141    0.2 |       344    0.2  25.6 |      300    0.2 |
 |  201 |       148    0.2 |       352    0.2  31.0 |      294    0.2 |
 |  202 |       136    0.2 |       362    0.2  30.9 |      304    0.2 |
 |  203 |       139    0.2 |       336    0.2  26.2 |      292    0.2 |
 |  204 |       138    0.2 |       336    0.2  27.7 |      288    0.2 |
 |  205 |       424    0.5 |      1018    0.5  76.0 |      607    0.5 |
 |  206 |       508    0.6 |      1206    0.6  79.1 |      713    0.6 |
 |  207 |       552    0.7 |      1292    0.7  81.2 |      763    0.6 |
 |  208 |       610    0.8 |      1398    0.7  82.3 |      797    0.6 |
 |  209 |       150    0.2 |       370    0.2  30.5 |      311    0.2 |
 |  210 |       145    0.2 |       368    0.2  30.4 |      310    0.2 |
 |  211 |       148    0.2 |       352    0.2  30.7 |      296    0.2 |
 |  212 |       137    0.2 |       358    0.2  29.1 |      304    0.2 |
 |  213 |       623    0.8 |      1402    0.7  82.4 |      773    0.6 |
 |  214 |       376    0.5 |       970    0.5  73.5 |      601    0.5 |
 |  215 |       134    0.2 |       348    0.2  29.9 |      294    0.2 |
 |  216 |       711    0.9 |      1630    0.8  84.9 |      939    0.7 |
 |  217 |       393    0.5 |       950    0.5  72.9 |      580    0.5 |
 |  218 |       138    0.2 |       334    0.2  26.3 |      290    0.2 |
 |  219 |       151    0.2 |       356    0.2  29.2 |      302    0.2 |
 |  220 |       139    0.2 |       362    0.2  29.8 |      306    0.2 |
 |  221 |       480    0.6 |      1122    0.6  78.1 |      680    0.5 |
 |  222 |       526    0.6 |      1230    0.6  79.2 |      729    0.6 |
 |  223 |       648    0.8 |      1520    0.8  83.3 |      860    0.7 |
 |  224 |       397    0.5 |       944    0.5  72.8 |      571    0.5 |
 |  225 |       146    0.2 |       360    0.2  28.9 |      308    0.2 |
 |  226 |       136    0.2 |       328    0.2  25.9 |      284    0.2 |
 |  227 |       360    0.4 |       886    0.5  72.1 |      549    0.4 |
 |  228 |       138    0.2 |       360    0.2  28.9 |      306    0.2 |
 |  229 |       488    0.6 |      1202    0.6  78.7 |      713    0.6 |
 |  230 |       454    0.6 |      1048    0.5  76.0 |      610    0.5 |
 |  231 |       376    0.5 |       952    0.5  73.7 |      590    0.5 |
 |  232 |       690    0.8 |      1556    0.8  83.7 |      850    0.7 |
 |  233 |       509    0.6 |      1200    0.6  79.8 |      713    0.6 |
 |  234 |       495    0.6 |      1134    0.6  77.5 |      654    0.5 |
 |  235 |       239    0.3 |       632    0.3  60.8 |      432    0.3 |
 |  236 |       654    0.8 |      1474    0.8  82.8 |      843    0.7 |
 |  237 |       136    0.2 |       328    0.2  25.6 |      286    0.2 |
 |  238 |       142    0.2 |       344    0.2  26.7 |      298    0.2 |
 |  239 |       151    0.2 |       358    0.2  30.2 |      302    0.2 |
 |  240 |       135    0.2 |       354    0.2  30.5 |      298    0.2 |
 |  241 |       135    0.2 |       330    0.2  25.5 |      288    0.2 |
 |  242 |       142    0.2 |       340    0.2  24.7 |      298    0.2 |
 |  243 |       141    0.2 |       336    0.2  23.8 |      296    0.2 |
 |  244 |       137    0.2 |       334    0.2  26.3 |      290    0.2 |
 |  245 |       596    0.7 |      1348    0.7  81.5 |      797    0.6 |
 |  246 |       576    0.7 |      1304    0.7  81.0 |      776    0.6 |
 |  247 |       620    0.8 |      1402    0.7  81.7 |      830    0.7 |
 |  248 |       139    0.2 |       336    0.2  25.0 |      294    0.2 |
 |  249 |       145    0.2 |       348    0.2  26.4 |      302    0.2 |
 |  250 |       136    0.2 |       330    0.2  24.2 |      290    0.2 |
 |  251 |       147    0.2 |       348    0.2  29.9 |      294    0.2 |
 |  252 |       539    0.7 |      1276    0.7  80.6 |      775    0.6 |
 |  253 |       410    0.5 |      1004    0.5  75.7 |      608    0.5 |
 |  254 |       571    0.7 |      1302    0.7  80.3 |      731    0.6 |
 |  255 |       138    0.2 |       332    0.2  24.1 |      292    0.2 |
 |  256 |       533    0.7 |      1204    0.6  79.6 |      728    0.6 |
 +------+------------------+------------------------+-----------------+
 | Min  |       134    0.2 |       322    0.2  22.4 |      284    0.2 |
 |(part)|           (   59)|           (   59   117)|          (   59)|
 +------+------------------+------------------------+-----------------+
 | Max  |       711    0.9 |      1630    0.8  84.9 |      939    0.7 |
 |(part)|           (  216)|           (  216   216)|          (  216)|
 +------+------------------+------------------------+-----------------+
 | Ave  |       317    0.4 |       754    0.4  66.7 |      492    0.4 |
 +------+------------------+------------------------+-----------------+
 | Sum  |     81244  100.0 |    193066  100.0  66.7 |   125835  100.0 |
 +------+------------------+------------------------+-----------------+

 +--------------------------------------------------------------------+
 |                 Partitioning CPU-Time Requirements                 |
 +--------------------------------------------------------------------+
  
 - Preparations                                       6.210E-01 seconds
 - Low-level mesh partitioning                        5.130E-01 seconds
 - Gather zone interface information                  2.359E+00 seconds
 - Global partitioning information                    3.100E-02 seconds
 - Element and face partitioning information          6.200E-02 seconds
 - Vertex partitioning information                    1.100E-01 seconds
 - Partitioning information compression               1.600E-02 seconds
 - Summed CPU-time for mesh partitioning              4.509E+00 seconds

 +--------------------------------------------------------------------+
 |                   Job Information at End of Run                    |
 +--------------------------------------------------------------------+

 +---------------------------+------+----------+----------+-----------+
 | Host                      | Mesh |     Job Finished    |    CPU    |
 |                           | Part | DD/MM/YY | hh:mm:ss |  seconds  |
 +---------------------------+------+----------+----------+-----------+
 | RD000D3A216DCD            |    1 | 08/06/15 | 13:51:07 | 1.382E+01 |
 +---------------------------+------+----------+----------+-----------+

 Total wall clock time: 1.267E+01 seconds
             or: (          0:         0:         0:    12.669 )
                 (       Days:     Hours:   Minutes:   Seconds )


 +--------------------------------------------------------------------+
 |                                                                    |
 |                               Solver                               |
 |                                                                    |
 +--------------------------------------------------------------------+




 +--------------------------------------------------------------------+
 |                                                                    |
 |                    ANSYS(R) CFX(R) Solver 15.0.7                   |
 |                                                                    |
 | Version 2014.04.10-23.00-131675     Thu Apr 10 23:23:23 GMTDT 2014 |
 |                                                                    |
 |                        Executable Attributes                       |
 |                                                                    |
 |          single-64bit-int32-supfort-optimised-noprof-lcomp         |
 |                                                                    |
 | (C) 2014 ANSYS, Inc.                                               |
 |                                                                    |
 | All rights reserved. Unauthorized use, distribution or duplication |
 | is prohibited. This product is subject to U.S. laws governing      |
 | export and re-export. For full Legal Notice, see documentation.    |
 +--------------------------------------------------------------------+




 +--------------------------------------------------------------------+
 |                  Job Information at Start of Run                   |
 +--------------------------------------------------------------------+

 Run mode:       parallel run (MS MPI)

 +------------------------------+------+--------+----------+----------+
 | Host                         | Mesh |  PID   |     Job Started     |
 |                              | Part |        | DD/MM/YY | hh:mm:ss |
 +------------------------------+------+--------+----------+----------+
 | RD000D3A216DCD               |    1 |   3736 | 08/06/15 | 13:54:43 |
 |                              |    2 |   3300 | 08/06/15 | 13:54:43 |
 |                              |    3 |   1992 | 08/06/15 | 13:54:43 |
 |                              |    4 |    920 | 08/06/15 | 13:54:43 |
 |                              |    5 |   2448 | 08/06/15 | 13:54:43 |
 |                              |    6 |   2208 | 08/06/15 | 13:54:43 |
 |                              |    7 |   4060 | 08/06/15 | 13:54:43 |
 |                              |    8 |   3348 | 08/06/15 | 13:54:43 |
 +------------------------------+------+--------+----------+----------+
 | RD000D3A216114               |    9 |   2124 | 08/06/15 | 13:54:43 |
 |                              |   10 |   3548 | 08/06/15 | 13:54:43 |
 |                              |   11 |   3716 | 08/06/15 | 13:54:43 |
 |                              |   12 |   3828 | 08/06/15 | 13:54:43 |
 |                              |   13 |   3552 | 08/06/15 | 13:54:43 |
 |                              |   14 |    992 | 08/06/15 | 13:54:43 |
 |                              |   15 |   3784 | 08/06/15 | 13:54:43 |
 |                              |   16 |   3676 | 08/06/15 | 13:54:43 |
 +------------------------------+------+--------+----------+----------+
 | RD000D3A216164               |   17 |   3752 | 08/06/15 | 13:54:43 |
 |                              |   18 |   1404 | 08/06/15 | 13:54:43 |
 |                              |   19 |   3740 | 08/06/15 | 13:54:43 |
 |                              |   20 |   3792 | 08/06/15 | 13:54:43 |
 |                              |   21 |   1928 | 08/06/15 | 13:54:43 |
 |                              |   22 |   3788 | 08/06/15 | 13:54:43 |
 |                              |   23 |   3676 | 08/06/15 | 13:54:43 |
 |                              |   24 |   3748 | 08/06/15 | 13:54:43 |
 +------------------------------+------+--------+----------+----------+
 | RD000D3A216F6E               |   25 |   2308 | 08/06/15 | 13:54:43 |
 |                              |   26 |   3816 | 08/06/15 | 13:54:43 |
 |                              |   27 |   3216 | 08/06/15 | 13:54:43 |
 |                              |   28 |   4084 | 08/06/15 | 13:54:43 |
 |                              |   29 |   3780 | 08/06/15 | 13:54:43 |
 |                              |   30 |   3332 | 08/06/15 | 13:54:43 |
 |                              |   31 |   1980 | 08/06/15 | 13:54:43 |
 |                              |   32 |   2712 | 08/06/15 | 13:54:43 |
 +------------------------------+------+--------+----------+----------+
 | RD000D3A216DC3               |   33 |   1880 | 08/06/15 | 13:54:43 |
 |                              |   34 |    928 | 08/06/15 | 13:54:43 |
 |                              |   35 |   2452 | 08/06/15 | 13:54:43 |
 |                              |   36 |   1660 | 08/06/15 | 13:54:43 |
 |                              |   37 |   2632 | 08/06/15 | 13:54:43 |
 |                              |   38 |    848 | 08/06/15 | 13:54:43 |
 |                              |   39 |   2312 | 08/06/15 | 13:54:43 |
 |                              |   40 |   2188 | 08/06/15 | 13:54:43 |
 +------------------------------+------+--------+----------+----------+
 | RD000D3A2166D4               |   41 |   1020 | 08/06/15 | 13:54:43 |
 |                              |   42 |   1332 | 08/06/15 | 13:54:43 |
 |                              |   43 |   1008 | 08/06/15 | 13:54:43 |
 |                              |   44 |   3836 | 08/06/15 | 13:54:43 |
 |                              |   45 |   3728 | 08/06/15 | 13:54:43 |
 |                              |   46 |   3584 | 08/06/15 | 13:54:43 |
 |                              |   47 |   2384 | 08/06/15 | 13:54:43 |
 |                              |   48 |   3068 | 08/06/15 | 13:54:43 |
 +------------------------------+------+--------+----------+----------+
 | RD000D3A216011               |   49 |   1192 | 08/06/15 | 13:54:43 |
 |                              |   50 |    936 | 08/06/15 | 13:54:43 |
 |                              |   51 |   3708 | 08/06/15 | 13:54:43 |
 |                              |   52 |   2656 | 08/06/15 | 13:54:43 |
 |                              |   53 |   2700 | 08/06/15 | 13:54:43 |
 |                              |   54 |   1112 | 08/06/15 | 13:54:43 |
 |                              |   55 |   2508 | 08/06/15 | 13:54:43 |
 |                              |   56 |   3112 | 08/06/15 | 13:54:43 |
 +------------------------------+------+--------+----------+----------+
 | RD000D3A2164D1               |   57 |   1392 | 08/06/15 | 13:54:43 |
 |                              |   58 |    500 | 08/06/15 | 13:54:43 |
 |                              |   59 |   1736 | 08/06/15 | 13:54:43 |
 |                              |   60 |   1020 | 08/06/15 | 13:54:43 |
 |                              |   61 |   1852 | 08/06/15 | 13:54:43 |
 |                              |   62 |   3040 | 08/06/15 | 13:54:43 |
 |                              |   63 |   3580 | 08/06/15 | 13:54:43 |
 |                              |   64 |   1888 | 08/06/15 | 13:54:43 |
 +------------------------------+------+--------+----------+----------+
 | RD000D3A2162C4               |   65 |   1732 | 08/06/15 | 13:54:43 |
 |                              |   66 |   3756 | 08/06/15 | 13:54:43 |
 |                              |   67 |   3792 | 08/06/15 | 13:54:43 |
 |                              |   68 |   3764 | 08/06/15 | 13:54:43 |
 |                              |   69 |   3700 | 08/06/15 | 13:54:43 |
 |                              |   70 |   1852 | 08/06/15 | 13:54:43 |
 |                              |   71 |   3636 | 08/06/15 | 13:54:43 |
 |                              |   72 |   2756 | 08/06/15 | 13:54:43 |
 +------------------------------+------+--------+----------+----------+
 | RD000D3A2163BB               |   73 |   3772 | 08/06/15 | 13:54:43 |
 |                              |   74 |   2948 | 08/06/15 | 13:54:43 |
 |                              |   75 |   3048 | 08/06/15 | 13:54:43 |
 |                              |   76 |   3080 | 08/06/15 | 13:54:43 |
 |                              |   77 |   3868 | 08/06/15 | 13:54:43 |
 |                              |   78 |   3796 | 08/06/15 | 13:54:43 |
 |                              |   79 |   4024 | 08/06/15 | 13:54:43 |
 |                              |   80 |   2228 | 08/06/15 | 13:54:43 |
 +------------------------------+------+--------+----------+----------+
 | RD000D3A216281               |   81 |   3900 | 08/06/15 | 13:54:43 |
 |                              |   82 |   3404 | 08/06/15 | 13:54:43 |
 |                              |   83 |   2440 | 08/06/15 | 13:54:43 |
 |                              |   84 |   1420 | 08/06/15 | 13:54:43 |
 |                              |   85 |   3852 | 08/06/15 | 13:54:43 |
 |                              |   86 |   2204 | 08/06/15 | 13:54:43 |
 |                              |   87 |   3444 | 08/06/15 | 13:54:43 |
 |                              |   88 |   3916 | 08/06/15 | 13:54:43 |
 +------------------------------+------+--------+----------+----------+
 | RD000D3A21643E               |   89 |   2872 | 08/06/15 | 13:54:43 |
 |                              |   90 |   2628 | 08/06/15 | 13:54:43 |
 |                              |   91 |   3384 | 08/06/15 | 13:54:43 |
 |                              |   92 |   3888 | 08/06/15 | 13:54:43 |
 |                              |   93 |   3444 | 08/06/15 | 13:54:43 |
 |                              |   94 |   1788 | 08/06/15 | 13:54:43 |
 |                              |   95 |   2688 | 08/06/15 | 13:54:43 |
 |                              |   96 |   2508 | 08/06/15 | 13:54:43 |
 +------------------------------+------+--------+----------+----------+
 | RD000D3A2169F9               |   97 |   3440 | 08/06/15 | 13:54:43 |
 |                              |   98 |   2332 | 08/06/15 | 13:54:43 |
 |                              |   99 |   3452 | 08/06/15 | 13:54:43 |
 |                              |  100 |   3448 | 08/06/15 | 13:54:43 |
 |                              |  101 |   3288 | 08/06/15 | 13:54:43 |
 |                              |  102 |   3488 | 08/06/15 | 13:54:43 |
 |                              |  103 |   2580 | 08/06/15 | 13:54:43 |
 |                              |  104 |   3428 | 08/06/15 | 13:54:43 |
 +------------------------------+------+--------+----------+----------+
 | RD000D3A216FE6               |  105 |   1592 | 08/06/15 | 13:54:43 |
 |                              |  106 |   3884 | 08/06/15 | 13:54:43 |
 |                              |  107 |   3436 | 08/06/15 | 13:54:43 |
 |                              |  108 |   3172 | 08/06/15 | 13:54:43 |
 |                              |  109 |   1388 | 08/06/15 | 13:54:43 |
 |                              |  110 |   2248 | 08/06/15 | 13:54:43 |
 |                              |  111 |   2244 | 08/06/15 | 13:54:43 |
 |                              |  112 |   1044 | 08/06/15 | 13:54:43 |
 +------------------------------+------+--------+----------+----------+
 | RD000D3A216E40               |  113 |   3688 | 08/06/15 | 13:54:43 |
 |                              |  114 |   3684 | 08/06/15 | 13:54:43 |
 |                              |  115 |   3756 | 08/06/15 | 13:54:43 |
 |                              |  116 |   3788 | 08/06/15 | 13:54:43 |
 |                              |  117 |   2384 | 08/06/15 | 13:54:43 |
 |                              |  118 |   3780 | 08/06/15 | 13:54:43 |
 |                              |  119 |   2052 | 08/06/15 | 13:54:43 |
 |                              |  120 |   1292 | 08/06/15 | 13:54:43 |
 +------------------------------+------+--------+----------+----------+
 | RD000D3A216B4B               |  121 |   3624 | 08/06/15 | 13:54:43 |
 |                              |  122 |   2616 | 08/06/15 | 13:54:43 |
 |                              |  123 |   3680 | 08/06/15 | 13:54:43 |
 |                              |  124 |   3044 | 08/06/15 | 13:54:43 |
 |                              |  125 |   2724 | 08/06/15 | 13:54:43 |
 |                              |  126 |   3760 | 08/06/15 | 13:54:43 |
 |                              |  127 |   3972 | 08/06/15 | 13:54:43 |
 |                              |  128 |   3248 | 08/06/15 | 13:54:43 |
 +------------------------------+------+--------+----------+----------+
 | RD000D3A216028               |  129 |   2020 | 08/06/15 | 13:54:43 |
 |                              |  130 |   1096 | 08/06/15 | 13:54:43 |
 |                              |  131 |   3220 | 08/06/15 | 13:54:43 |
 |                              |  132 |   1656 | 08/06/15 | 13:54:43 |
 |                              |  133 |   3188 | 08/06/15 | 13:54:43 |
 |                              |  134 |    676 | 08/06/15 | 13:54:43 |
 |                              |  135 |   3368 | 08/06/15 | 13:54:43 |
 |                              |  136 |    844 | 08/06/15 | 13:54:43 |
 +------------------------------+------+--------+----------+----------+
 | RD000D3A216149               |  137 |   2420 | 08/06/15 | 13:54:43 |
 |                              |  138 |   3656 | 08/06/15 | 13:54:43 |
 |                              |  139 |   3336 | 08/06/15 | 13:54:43 |
[...]
 |                           |   20 | 08/06/15 | 13:58:51 | 2.531E+02 |
 |                           |   21 | 08/06/15 | 13:58:51 | 2.531E+02 |
 |                           |   22 | 08/06/15 | 13:58:51 | 2.531E+02 |
 |                           |   23 | 08/06/15 | 13:58:51 | 2.531E+02 |
 |                           |   24 | 08/06/15 | 13:58:51 | 2.531E+02 |
 +---------------------------+------+----------+----------+-----------+
 | RD000D3A216F6E            |   25 | 08/06/15 | 13:58:51 | 2.684E+02 |
 |                           |   26 | 08/06/15 | 13:58:51 | 2.684E+02 |
 |                           |   27 | 08/06/15 | 13:58:51 | 2.684E+02 |
 |                           |   28 | 08/06/15 | 13:58:51 | 2.684E+02 |
 |                           |   29 | 08/06/15 | 13:58:51 | 2.684E+02 |
 |                           |   30 | 08/06/15 | 13:58:51 | 2.684E+02 |
 |                           |   31 | 08/06/15 | 13:58:51 | 2.684E+02 |
 |                           |   32 | 08/06/15 | 13:58:51 | 2.684E+02 |
 +---------------------------+------+----------+----------+-----------+
 | RD000D3A216DC3            |   33 | 08/06/15 | 13:58:51 | 3.837E+02 |
 |                           |   34 | 08/06/15 | 13:58:51 | 3.837E+02 |
 |                           |   35 | 08/06/15 | 13:58:51 | 3.837E+02 |
 |                           |   36 | 08/06/15 | 13:58:51 | 3.837E+02 |
 |                           |   37 | 08/06/15 | 13:58:51 | 3.837E+02 |
 |                           |   38 | 08/06/15 | 13:58:51 | 3.837E+02 |
 |                           |   39 | 08/06/15 | 13:58:51 | 3.837E+02 |
 |                           |   40 | 08/06/15 | 13:58:51 | 3.837E+02 |
 +---------------------------+------+----------+----------+-----------+
 | RD000D3A2166D4            |   41 | 08/06/15 | 13:58:52 | 2.529E+02 |
 |                           |   42 | 08/06/15 | 13:58:52 | 2.529E+02 |
 |                           |   43 | 08/06/15 | 13:58:52 | 2.529E+02 |
 |                           |   44 | 08/06/15 | 13:58:52 | 2.529E+02 |
 |                           |   45 | 08/06/15 | 13:58:52 | 2.529E+02 |
 |                           |   46 | 08/06/15 | 13:58:52 | 2.529E+02 |
 |                           |   47 | 08/06/15 | 13:58:52 | 2.529E+02 |
 |                           |   48 | 08/06/15 | 13:58:52 | 2.529E+02 |
 +---------------------------+------+----------+----------+-----------+
 | RD000D3A216011            |   49 | 08/06/15 | 13:58:51 | 2.965E+02 |
 |                           |   50 | 08/06/15 | 13:58:51 | 2.965E+02 |
 |                           |   51 | 08/06/15 | 13:58:51 | 2.965E+02 |
 |                           |   52 | 08/06/15 | 13:58:51 | 2.965E+02 |
 |                           |   53 | 08/06/15 | 13:58:51 | 2.965E+02 |
 |                           |   54 | 08/06/15 | 13:58:51 | 2.965E+02 |
 |                           |   55 | 08/06/15 | 13:58:51 | 2.965E+02 |
 |                           |   56 | 08/06/15 | 13:58:51 | 2.965E+02 |
 +---------------------------+------+----------+----------+-----------+
 | RD000D3A2164D1            |   57 | 08/06/15 | 13:58:51 | 2.975E+02 |
 |                           |   58 | 08/06/15 | 13:58:51 | 2.975E+02 |
 |                           |   59 | 08/06/15 | 13:58:51 | 2.975E+02 |
 |                           |   60 | 08/06/15 | 13:58:51 | 2.975E+02 |
 |                           |   61 | 08/06/15 | 13:58:51 | 2.975E+02 |
 |                           |   62 | 08/06/15 | 13:58:51 | 2.975E+02 |
 |                           |   63 | 08/06/15 | 13:58:51 | 2.975E+02 |
 |                           |   64 | 08/06/15 | 13:58:51 | 2.975E+02 |
 +---------------------------+------+----------+----------+-----------+
 | RD000D3A2162C4            |   65 | 08/06/15 | 13:58:51 | 2.533E+02 |
 |                           |   66 | 08/06/15 | 13:58:51 | 2.533E+02 |
 |                           |   67 | 08/06/15 | 13:58:51 | 2.533E+02 |
 |                           |   68 | 08/06/15 | 13:58:51 | 2.533E+02 |
 |                           |   69 | 08/06/15 | 13:58:51 | 2.533E+02 |
 |                           |   70 | 08/06/15 | 13:58:51 | 2.533E+02 |
 |                           |   71 | 08/06/15 | 13:58:51 | 2.533E+02 |
 |                           |   72 | 08/06/15 | 13:58:51 | 2.533E+02 |
 +---------------------------+------+----------+----------+-----------+
 | RD000D3A2163BB            |   73 | 08/06/15 | 13:58:52 | 2.985E+02 |
 |                           |   74 | 08/06/15 | 13:58:52 | 2.985E+02 |
 |                           |   75 | 08/06/15 | 13:58:52 | 2.985E+02 |
 |                           |   76 | 08/06/15 | 13:58:52 | 2.985E+02 |
 |                           |   77 | 08/06/15 | 13:58:52 | 2.985E+02 |
 |                           |   78 | 08/06/15 | 13:58:52 | 2.985E+02 |
 |                           |   79 | 08/06/15 | 13:58:52 | 2.985E+02 |
 |                           |   80 | 08/06/15 | 13:58:52 | 2.985E+02 |
 +---------------------------+------+----------+----------+-----------+
 | RD000D3A216281            |   81 | 08/06/15 | 13:58:52 | 2.527E+02 |
 |                           |   82 | 08/06/15 | 13:58:52 | 2.527E+02 |
 |                           |   83 | 08/06/15 | 13:58:52 | 2.527E+02 |
 |                           |   84 | 08/06/15 | 13:58:52 | 2.527E+02 |
 |                           |   85 | 08/06/15 | 13:58:52 | 2.527E+02 |
 |                           |   86 | 08/06/15 | 13:58:52 | 2.527E+02 |
 |                           |   87 | 08/06/15 | 13:58:52 | 2.527E+02 |
 |                           |   88 | 08/06/15 | 13:58:52 | 2.527E+02 |
 +---------------------------+------+----------+----------+-----------+
 | RD000D3A21643E            |   89 | 08/06/15 | 13:58:52 | 2.936E+02 |
 |                           |   90 | 08/06/15 | 13:58:52 | 2.936E+02 |
 |                           |   91 | 08/06/15 | 13:58:52 | 2.936E+02 |
 |                           |   92 | 08/06/15 | 13:58:52 | 2.936E+02 |
 |                           |   93 | 08/06/15 | 13:58:52 | 2.936E+02 |
 |                           |   94 | 08/06/15 | 13:58:52 | 2.936E+02 |
 |                           |   95 | 08/06/15 | 13:58:52 | 2.936E+02 |
 |                           |   96 | 08/06/15 | 13:58:52 | 2.936E+02 |
 +---------------------------+------+----------+----------+-----------+
 | RD000D3A2169F9            |   97 | 08/06/15 | 13:58:51 | 2.529E+02 |
 |                           |   98 | 08/06/15 | 13:58:51 | 2.529E+02 |
 |                           |   99 | 08/06/15 | 13:58:51 | 2.529E+02 |
 |                           |  100 | 08/06/15 | 13:58:51 | 2.529E+02 |
 |                           |  101 | 08/06/15 | 13:58:51 | 2.529E+02 |
 |                           |  102 | 08/06/15 | 13:58:51 | 2.529E+02 |
 |                           |  103 | 08/06/15 | 13:58:51 | 2.529E+02 |
 |                           |  104 | 08/06/15 | 13:58:51 | 2.529E+02 |
 +---------------------------+------+----------+----------+-----------+
 | RD000D3A216FE6            |  105 | 08/06/15 | 13:58:51 | 2.527E+02 |
 |                           |  106 | 08/06/15 | 13:58:51 | 2.527E+02 |
 |                           |  107 | 08/06/15 | 13:58:51 | 2.527E+02 |
 |                           |  108 | 08/06/15 | 13:58:51 | 2.527E+02 |
 |                           |  109 | 08/06/15 | 13:58:51 | 2.527E+02 |
 |                           |  110 | 08/06/15 | 13:58:51 | 2.527E+02 |
 |                           |  111 | 08/06/15 | 13:58:51 | 2.527E+02 |
 |                           |  112 | 08/06/15 | 13:58:51 | 2.527E+02 |
 +---------------------------+------+----------+----------+-----------+
 | RD000D3A216E40            |  113 | 08/06/15 | 13:58:51 | 2.683E+02 |
 |                           |  114 | 08/06/15 | 13:58:51 | 2.683E+02 |
 |                           |  115 | 08/06/15 | 13:58:51 | 2.683E+02 |
 |                           |  116 | 08/06/15 | 13:58:51 | 2.683E+02 |
 |                           |  117 | 08/06/15 | 13:58:51 | 2.683E+02 |
 |                           |  118 | 08/06/15 | 13:58:51 | 2.683E+02 |
 |                           |  119 | 08/06/15 | 13:58:51 | 2.683E+02 |
 |                           |  120 | 08/06/15 | 13:58:51 | 2.683E+02 |
 +---------------------------+------+----------+----------+-----------+
 | RD000D3A216B4B            |  121 | 08/06/15 | 13:58:51 | 3.121E+02 |
 |                           |  122 | 08/06/15 | 13:58:51 | 3.121E+02 |
 |                           |  123 | 08/06/15 | 13:58:51 | 3.121E+02 |
 |                           |  124 | 08/06/15 | 13:58:51 | 3.121E+02 |
 |                           |  125 | 08/06/15 | 13:58:51 | 3.121E+02 |
 |                           |  126 | 08/06/15 | 13:58:51 | 3.121E+02 |
 |                           |  127 | 08/06/15 | 13:58:51 | 3.121E+02 |
 |                           |  128 | 08/06/15 | 13:58:51 | 3.121E+02 |
 +---------------------------+------+----------+----------+-----------+
 | RD000D3A216028            |  129 | 08/06/15 | 13:58:52 | 3.215E+02 |
 |                           |  130 | 08/06/15 | 13:58:52 | 3.215E+02 |
 |                           |  131 | 08/06/15 | 13:58:52 | 3.215E+02 |
 |                           |  132 | 08/06/15 | 13:58:52 | 3.215E+02 |
 |                           |  133 | 08/06/15 | 13:58:52 | 3.215E+02 |
 |                           |  134 | 08/06/15 | 13:58:52 | 3.215E+02 |
 |                           |  135 | 08/06/15 | 13:58:52 | 3.215E+02 |
 |                           |  136 | 08/06/15 | 13:58:52 | 3.215E+02 |
 +---------------------------+------+----------+----------+-----------+
 | RD000D3A216149            |  137 | 08/06/15 | 13:58:51 | 3.083E+02 |
 |                           |  138 | 08/06/15 | 13:58:51 | 3.083E+02 |
 |                           |  139 | 08/06/15 | 13:58:51 | 3.083E+02 |
 |                           |  140 | 08/06/15 | 13:58:51 | 3.083E+02 |
 |                           |  141 | 08/06/15 | 13:58:51 | 3.083E+02 |
 |                           |  142 | 08/06/15 | 13:58:51 | 3.083E+02 |
 |                           |  143 | 08/06/15 | 13:58:51 | 3.083E+02 |
 |                           |  144 | 08/06/15 | 13:58:51 | 3.083E+02 |
 +---------------------------+------+----------+----------+-----------+
 | RD000D3A216E3C            |  145 | 08/06/15 | 13:58:51 | 2.986E+02 |
 |                           |  146 | 08/06/15 | 13:58:51 | 2.986E+02 |
 |                           |  147 | 08/06/15 | 13:58:51 | 2.986E+02 |
 |                           |  148 | 08/06/15 | 13:58:51 | 2.986E+02 |
 |                           |  149 | 08/06/15 | 13:58:51 | 2.986E+02 |
 |                           |  150 | 08/06/15 | 13:58:51 | 2.986E+02 |
 |                           |  151 | 08/06/15 | 13:58:51 | 2.986E+02 |
 |                           |  152 | 08/06/15 | 13:58:51 | 2.986E+02 |
 +---------------------------+------+----------+----------+-----------+
 | RD000D3A216E48            |  153 | 08/06/15 | 13:58:52 | 2.834E+02 |
 |                           |  154 | 08/06/15 | 13:58:52 | 2.834E+02 |
 |                           |  155 | 08/06/15 | 13:58:52 | 2.834E+02 |
 |                           |  156 | 08/06/15 | 13:58:52 | 2.834E+02 |
 |                           |  157 | 08/06/15 | 13:58:52 | 2.834E+02 |
 |                           |  158 | 08/06/15 | 13:58:52 | 2.834E+02 |
 |                           |  159 | 08/06/15 | 13:58:52 | 2.834E+02 |
 |                           |  160 | 08/06/15 | 13:58:52 | 2.834E+02 |
 +---------------------------+------+----------+----------+-----------+
 | RD000D3A2161C9            |  161 | 08/06/15 | 13:58:52 | 3.570E+02 |
 |                           |  162 | 08/06/15 | 13:58:52 | 3.570E+02 |
 |                           |  163 | 08/06/15 | 13:58:52 | 3.570E+02 |
 |                           |  164 | 08/06/15 | 13:58:52 | 3.570E+02 |
 |                           |  165 | 08/06/15 | 13:58:52 | 3.570E+02 |
 |                           |  166 | 08/06/15 | 13:58:52 | 3.570E+02 |
 |                           |  167 | 08/06/15 | 13:58:52 | 3.570E+02 |
 |                           |  168 | 08/06/15 | 13:58:52 | 3.570E+02 |
 +---------------------------+------+----------+----------+-----------+
 | RD000D3A2164F9            |  169 | 08/06/15 | 13:58:51 | 2.952E+02 |
 |                           |  170 | 08/06/15 | 13:58:51 | 2.945E+02 |
 |                           |  171 | 08/06/15 | 13:58:51 | 2.947E+02 |
 |                           |  172 | 08/06/15 | 13:58:51 | 2.955E+02 |
 |                           |  173 | 08/06/15 | 13:58:51 | 2.952E+02 |
 |                           |  174 | 08/06/15 | 13:58:51 | 2.950E+02 |
 |                           |  175 | 08/06/15 | 13:58:51 | 2.955E+02 |
 |                           |  176 | 08/06/15 | 13:58:51 | 2.946E+02 |
 +---------------------------+------+----------+----------+-----------+
 | RD000D3A216A28            |  177 | 08/06/15 | 13:58:51 | 2.540E+02 |
 |                           |  178 | 08/06/15 | 13:58:51 | 2.540E+02 |
 |                           |  179 | 08/06/15 | 13:58:51 | 2.540E+02 |
 |                           |  180 | 08/06/15 | 13:58:51 | 2.540E+02 |
 |                           |  181 | 08/06/15 | 13:58:51 | 2.540E+02 |
 |                           |  182 | 08/06/15 | 13:58:51 | 2.540E+02 |
 |                           |  183 | 08/06/15 | 13:58:51 | 2.540E+02 |
 |                           |  184 | 08/06/15 | 13:58:51 | 2.540E+02 |
 +---------------------------+------+----------+----------+-----------+
 | RD000D3A216004            |  185 | 08/06/15 | 13:58:51 | 2.989E+02 |
 |                           |  186 | 08/06/15 | 13:58:51 | 2.989E+02 |
 |                           |  187 | 08/06/15 | 13:58:51 | 2.989E+02 |
 |                           |  188 | 08/06/15 | 13:58:51 | 2.989E+02 |
 |                           |  189 | 08/06/15 | 13:58:51 | 2.989E+02 |
 |                           |  190 | 08/06/15 | 13:58:51 | 2.989E+02 |
 |                           |  191 | 08/06/15 | 13:58:51 | 2.989E+02 |
 |                           |  192 | 08/06/15 | 13:58:51 | 2.989E+02 |
 +---------------------------+------+----------+----------+-----------+
 | RD000D3A21687B            |  193 | 08/06/15 | 13:58:52 | 2.540E+02 |
 |                           |  194 | 08/06/15 | 13:58:52 | 2.540E+02 |
 |                           |  195 | 08/06/15 | 13:58:52 | 2.540E+02 |
 |                           |  196 | 08/06/15 | 13:58:52 | 2.540E+02 |
 |                           |  197 | 08/06/15 | 13:58:52 | 2.540E+02 |
 |                           |  198 | 08/06/15 | 13:58:52 | 2.540E+02 |
 |                           |  199 | 08/06/15 | 13:58:52 | 2.540E+02 |
 |                           |  200 | 08/06/15 | 13:58:52 | 2.540E+02 |
 +---------------------------+------+----------+----------+-----------+
 | RD000D3A216D30            |  201 | 08/06/15 | 13:58:52 | 3.013E+02 |
 |                           |  202 | 08/06/15 | 13:58:52 | 3.013E+02 |
 |                           |  203 | 08/06/15 | 13:58:52 | 3.013E+02 |
 |                           |  204 | 08/06/15 | 13:58:52 | 3.013E+02 |
 |                           |  205 | 08/06/15 | 13:58:52 | 3.013E+02 |
 |                           |  206 | 08/06/15 | 13:58:52 | 3.013E+02 |
 |                           |  207 | 08/06/15 | 13:58:52 | 3.013E+02 |
 |                           |  208 | 08/06/15 | 13:58:52 | 3.013E+02 |
 +---------------------------+------+----------+----------+-----------+
 | RD000D3A216ED9            |  209 | 08/06/15 | 13:58:52 | 2.994E+02 |
 |                           |  210 | 08/06/15 | 13:58:52 | 2.994E+02 |
 |                           |  211 | 08/06/15 | 13:58:52 | 2.994E+02 |
 |                           |  212 | 08/06/15 | 13:58:52 | 2.994E+02 |
 |                           |  213 | 08/06/15 | 13:58:52 | 2.994E+02 |
 |                           |  214 | 08/06/15 | 13:58:52 | 2.994E+02 |
 |                           |  215 | 08/06/15 | 13:58:52 | 2.994E+02 |
 |                           |  216 | 08/06/15 | 13:58:52 | 2.994E+02 |
 +---------------------------+------+----------+----------+-----------+
 | RD000D3A21634A            |  217 | 08/06/15 | 13:58:52 | 2.999E+02 |
 |                           |  218 | 08/06/15 | 13:58:52 | 2.999E+02 |
 |                           |  219 | 08/06/15 | 13:58:52 | 2.999E+02 |
 |                           |  220 | 08/06/15 | 13:58:52 | 2.999E+02 |
 |                           |  221 | 08/06/15 | 13:58:52 | 2.999E+02 |
 |                           |  222 | 08/06/15 | 13:58:52 | 2.999E+02 |
 |                           |  223 | 08/06/15 | 13:58:52 | 2.999E+02 |
 |                           |  224 | 08/06/15 | 13:58:52 | 2.999E+02 |
 +---------------------------+------+----------+----------+-----------+
 | RD000D3A216738            |  225 | 08/06/15 | 13:58:51 | 2.539E+02 |
 |                           |  226 | 08/06/15 | 13:58:51 | 2.539E+02 |
 |                           |  227 | 08/06/15 | 13:58:51 | 2.539E+02 |
 |                           |  228 | 08/06/15 | 13:58:51 | 2.539E+02 |
 |                           |  229 | 08/06/15 | 13:58:51 | 2.539E+02 |
 |                           |  230 | 08/06/15 | 13:58:51 | 2.539E+02 |
 |                           |  231 | 08/06/15 | 13:58:51 | 2.539E+02 |
 |                           |  232 | 08/06/15 | 13:58:51 | 2.539E+02 |
 +---------------------------+------+----------+----------+-----------+
 | RD000D3A216A1A            |  233 | 08/06/15 | 13:58:51 | 2.530E+02 |
 |                           |  234 | 08/06/15 | 13:58:51 | 2.530E+02 |
 |                           |  235 | 08/06/15 | 13:58:51 | 2.530E+02 |
 |                           |  236 | 08/06/15 | 13:58:51 | 2.530E+02 |
 |                           |  237 | 08/06/15 | 13:58:51 | 2.530E+02 |
 |                           |  238 | 08/06/15 | 13:58:51 | 2.530E+02 |
 |                           |  239 | 08/06/15 | 13:58:51 | 2.530E+02 |
 |                           |  240 | 08/06/15 | 13:58:51 | 2.530E+02 |
 +---------------------------+------+----------+----------+-----------+
 | RD000D3A2161C0            |  241 | 08/06/15 | 13:58:51 | 2.531E+02 |
 |                           |  242 | 08/06/15 | 13:58:51 | 2.531E+02 |
 |                           |  243 | 08/06/15 | 13:58:51 | 2.531E+02 |
 |                           |  244 | 08/06/15 | 13:58:51 | 2.531E+02 |
 |                           |  245 | 08/06/15 | 13:58:51 | 2.531E+02 |
 |                           |  246 | 08/06/15 | 13:58:51 | 2.531E+02 |
 |                           |  247 | 08/06/15 | 13:58:51 | 2.531E+02 |
 |                           |  248 | 08/06/15 | 13:58:51 | 2.531E+02 |
 +---------------------------+------+----------+----------+-----------+
 | RD000D3A216828            |  249 | 08/06/15 | 13:58:52 | 2.549E+02 |
 |                           |  250 | 08/06/15 | 13:58:52 | 2.549E+02 |
 |                           |  251 | 08/06/15 | 13:58:52 | 2.549E+02 |
 |                           |  252 | 08/06/15 | 13:58:52 | 2.549E+02 |
 |                           |  253 | 08/06/15 | 13:58:52 | 2.549E+02 |
 |                           |  254 | 08/06/15 | 13:58:52 | 2.549E+02 |
 |                           |  255 | 08/06/15 | 13:58:52 | 2.549E+02 |
 |                           |  256 | 08/06/15 | 13:58:52 | 2.549E+02 |
 +---------------------------+------+----------+----------+-----------+

 Total wall clock time: 2.511E+02 seconds
             or: (          0:         0:         4:    11.063 )
                 (       Days:     Hours:   Minutes:   Seconds )



 --> Final synchronization point reached by all partitions.
End of solution stage.

 +--------------------------------------------------------------------+
 | The results from this run of the ANSYS CFX Solver have been        |
 | written to                                                         |
 | \\10.10.13.41\C\Resources\directory\8810b9ad626f410f908be9ee09fdb- |
 | ab0.HSR.AzureEE.HpcWorkerRole.jobdata\job-9\pipe01_001.res         |
 +--------------------------------------------------------------------+


This run of the ANSYS CFX Solver has finished.
