 This run of the CFX-15.0.7 Solver started at 07:23:40 on 29 May 2015 by
 user MpiUser on RD000D3A21FAED (intel_xeon64.sse2_winnt) using the
 command:
 
  "\\hsransys.file.core.windows.net\main\apps\ANSYS Inc\v150\CFX\bin\perllib\cfx5solve.pl"
    -def pipe02.def -chdir
    \\10.10.13.6\C\Resources\directory\3301acebc8f4463d990a819988261bb5.HSR.AzureEE.HpcWorkerRole.jobdata\job-4
    -start-method MSMPI2 -part 256
 
 Point Releases and Patches installed:
 
  ANSYS, Inc. Products 15.0.7
  ANSYS Mechanical Products 15.0.7
  ANSYS Autodyn 15.0.7
  ANSYS LS-DYNA 15.0.7
  ANSYS CFX (includes ANSYS CFD-Post) 15.0.7
  ANSYS Fluent (includes ANSYS CFD-Post) 15.0.7
  ANSYS TurboGrid 15.0.7
  ANSYS Polyflow (includes ANSYS CFD-Post) 15.0.7
  ANSYS Aqwa 15.0.7
  ANSYS ICEM CFD 15.0.7
  ANSYS Icepak (includes ANSYS CFD-Post) 15.0.7
  Catia, Version 6 15.0.7
  ANSYS, Inc. License Manager 15.0.7
 
 Setting up CFX Solver run ...
 

 +--------------------------------------------------------------------+
 |                              Warning!                              |
 |                                                                    |
 | The working directory is a UNC path, but the Windows command shell |
 | is currently not configured to support UNC paths. This may cause   |
 | failure of the CFX Solver.                                         |
 |                                                                    |
 | Command shell support for UNC paths can be enabled by setting the  |
 | Windows registry key DisableUNCCheck.                              |
 +--------------------------------------------------------------------+


 +--------------------------------------------------------------------+
 |                                                                    |
 |                    CFX Command Language Upgrade                    |
 |                                                                    |
 +--------------------------------------------------------------------+

 Added /SIMULATION CONTROL/EXECUTION CONTROL/EXECUTABLE SELECTION/Double
 Precision = Off.
 

 +--------------------------------------------------------------------+
 |                                                                    |
 |                    CFX Command Language for Run                    |
 |                                                                    |
 +--------------------------------------------------------------------+

 LIBRARY:
   CEL:
     EXPRESSIONS:
       DeltaT = probe(T)@MP3-273.15[K]
     END
   END
   MATERIAL: PE100RC
     Material Group = CHT Solids
     Option = Pure Substance
     Thermodynamic State = Solid
     PROPERTIES:
       Option = General Material
       EQUATION OF STATE:
         Density = 960 [kg m^-3]
         Molar Mass = 1.0 [kg kmol^-1]
         Option = Value
       END
       SPECIFIC HEAT CAPACITY:
         Option = Value
         Specific Heat Capacity = 1900 [J kg^-1 K^-1]
       END
       THERMAL CONDUCTIVITY:
         Option = Value
         Thermal Conductivity = 0.38 [W m^-1 K^-1]
       END
     END
   END
   MATERIAL: Water Glycol Mixture
     Material Description = Water (liquid)
     Material Group = Water Data,Constant Property Liquids
     Option = Pure Substance
     Thermodynamic State = Liquid
     PROPERTIES:
       Option = General Material
       EQUATION OF STATE:
         Density = 1042 [kg m^-3]
         Molar Mass = 18.02 [kg kmol^-1]
         Option = Value
       END
       SPECIFIC HEAT CAPACITY:
         Option = Value
         Specific Heat Capacity = 3481 [J kg^-1 K^-1]
         Specific Heat Type = Constant Pressure
       END
       REFERENCE STATE:
         Option = Specified Point
         Reference Pressure = 1 [atm]
         Reference Specific Enthalpy = 0.0 [J/kg]
         Reference Specific Entropy = 0.0 [J/kg/K]
         Reference Temperature = 0 [C]
       END
       DYNAMIC VISCOSITY:
         Dynamic Viscosity = 8.899E-4 [kg m^-1 s^-1]
         Option = Value
       END
       THERMAL CONDUCTIVITY:
         Option = Value
         Thermal Conductivity = 0.6069 [W m^-1 K^-1]
       END
       ABSORPTION COEFFICIENT:
         Absorption Coefficient = 1.0 [m^-1]
         Option = Value
       END
       SCATTERING COEFFICIENT:
         Option = Value
         Scattering Coefficient = 0.0 [m^-1]
       END
       REFRACTIVE INDEX:
         Option = Value
         Refractive Index = 1.0 [m m^-1]
       END
       THERMAL EXPANSIVITY:
         Option = Value
         Thermal Expansivity = 2.57E-04 [K^-1]
       END
     END
   END
 END
 FLOW: Flow Analysis 1
   SOLUTION UNITS:
     Angle Units = [rad]
     Length Units = [m]
     Mass Units = [kg]
     Solid Angle Units = [sr]
     Temperature Units = [K]
     Time Units = [s]
   END
   ANALYSIS TYPE:
     Option = Steady State
     EXTERNAL SOLVER COUPLING:
       Option = None
     END
   END
   DOMAIN: FluidDom
     Coord Frame = Coord 0
     Domain Type = Fluid
     Location = B446
     BOUNDARY: Default Fluid Solid Interface Side 1
       Boundary Type = INTERFACE
       Location = F449.446,F450.446,F452.446,F453.446,F454.446
       BOUNDARY CONDITIONS:
         HEAT TRANSFER:
           Option = Conservative Interface Flux
         END
         MASS AND MOMENTUM:
           Option = No Slip Wall
         END
         WALL ROUGHNESS:
           Option = Smooth Wall
         END
       END
     END
     BOUNDARY: Domain Interface 1 Side 1 1
       Boundary Type = INTERFACE
       Location = FluidSym01
       BOUNDARY CONDITIONS:
         HEAT TRANSFER:
           Option = Conservative Interface Flux
         END
         MASS AND MOMENTUM:
           Option = Conservative Interface Flux
         END
         TURBULENCE:
           Option = Conservative Interface Flux
         END
       END
     END
     BOUNDARY: Domain Interface 2 Side 1
       Boundary Type = INTERFACE
       Location = FluidSym02
       BOUNDARY CONDITIONS:
         HEAT TRANSFER:
           Option = Conservative Interface Flux
         END
         MASS AND MOMENTUM:
           Option = Conservative Interface Flux
         END
         TURBULENCE:
           Option = Conservative Interface Flux
         END
       END
     END
     BOUNDARY: Inlet
       Boundary Type = INLET
       Location = F447.446
       BOUNDARY CONDITIONS:
         FLOW REGIME:
           Option = Subsonic
         END
         HEAT TRANSFER:
           Option = Static Temperature
           Static Temperature = 273.15 [K]
         END
         MASS AND MOMENTUM:
           Normal Speed = 0.05 [m s^-1]
           Option = Normal Speed
         END
         TURBULENCE:
           Option = Medium Intensity and Eddy Viscosity Ratio
         END
       END
     END
     BOUNDARY: Outlet
       Boundary Type = OUTLET
       Location = F451.446
       BOUNDARY CONDITIONS:
         FLOW REGIME:
           Option = Subsonic
         END
         MASS AND MOMENTUM:
           Normal Speed = 0.05 [m s^-1]
           Option = Normal Speed
         END
       END
     END
     DOMAIN MODELS:
       BUOYANCY MODEL:
         Option = Non Buoyant
       END
       DOMAIN MOTION:
         Option = Stationary
       END
       MESH DEFORMATION:
         Option = None
       END
       REFERENCE PRESSURE:
         Reference Pressure = 1 [atm]
       END
     END
     FLUID DEFINITION: Fluid 1
       Material = Water Glycol Mixture
       Option = Material Library
       MORPHOLOGY:
         Option = Continuous Fluid
       END
     END
     FLUID MODELS:
       COMBUSTION MODEL:
         Option = None
       END
       HEAT TRANSFER MODEL:
         Option = Thermal Energy
       END
       THERMAL RADIATION MODEL:
         Option = None
       END
       TURBULENCE MODEL:
         Option = k epsilon
       END
       TURBULENT WALL FUNCTIONS:
         Option = Scalable
       END
     END
     SOURCE POINT: Origin
       Cartesian Coordinates = 0.0[m],0.0[m],0.0[m]
       Option = Cartesian Coordinates
     END
   END
   DOMAIN: TubeDom
     Coord Frame = Coord 0
     Domain Type = Solid
     Location = B378,B662
     BOUNDARY: Default Fluid Solid Interface Side 2
       Boundary Type = INTERFACE
       Location = \
         F379.378,F380.378,F381.378,F382.378,F383.378,F666.662,F668.662,F670.6\
         62,F672.662,F674.662
       BOUNDARY CONDITIONS:
         HEAT TRANSFER:
           Option = Conservative Interface Flux
         END
       END
     END
     BOUNDARY: Domain Interface 1 Side 1
       Boundary Type = INTERFACE
       Location = TubeIntFace01
       BOUNDARY CONDITIONS:
         HEAT TRANSFER:
           Option = Conservative Interface Flux
         END
       END
     END
     BOUNDARY: Domain Interface 1 Side 2
       Boundary Type = INTERFACE
       Location = TubeIntFace02
       BOUNDARY CONDITIONS:
         HEAT TRANSFER:
           Option = Conservative Interface Flux
         END
       END
     END
     BOUNDARY: Domain Interface 2 Side 2
       Boundary Type = INTERFACE
       Location = TubeSymFace01
       BOUNDARY CONDITIONS:
         HEAT TRANSFER:
           Option = Conservative Interface Flux
         END
       END
     END
     BOUNDARY: SymmetrieSolid Side 1
       Boundary Type = INTERFACE
       Location = TubeSymFace02
       BOUNDARY CONDITIONS:
         HEAT TRANSFER:
           Option = Conservative Interface Flux
         END
       END
     END
     BOUNDARY: TubeDom Default
       Boundary Type = WALL
       Location = \
         F390.378,F391.378,F392.378,F393.378,F394.378,F676.662,F677.662,F678.6\
         62,F679.662,F680.662
       BOUNDARY CONDITIONS:
         HEAT TRANSFER:
           Option = Adiabatic
         END
       END
     END
     BOUNDARY: TubeOuterWallAdia
       Boundary Type = WALL
       Location = TubeOuterWall01
       BOUNDARY CONDITIONS:
         HEAT TRANSFER:
           Option = Adiabatic
         END
       END
     END
     BOUNDARY: TubeOuterWallHeatex
       Boundary Type = WALL
       Location = TubeOuterWall02
       BOUNDARY CONDITIONS:
         HEAT TRANSFER:
           Fixed Temperature = 283.15 [K]
           Option = Fixed Temperature
         END
       END
     END
     DOMAIN MODELS:
       DOMAIN MOTION:
         Option = Stationary
       END
       MESH DEFORMATION:
         Option = None
       END
     END
     SOLID DEFINITION: Solid 1
       Material = PE100RC
       Option = Material Library
       MORPHOLOGY:
         Option = Continuous Solid
       END
     END
     SOLID MODELS:
       HEAT TRANSFER MODEL:
         Option = Thermal Energy
       END
       THERMAL RADIATION MODEL:
         Option = None
       END
     END
   END
   DOMAIN INTERFACE: Default Fluid Solid Interface
     Boundary List1 = Default Fluid Solid Interface Side 1
     Boundary List2 = Default Fluid Solid Interface Side 2
     Interface Type = Fluid Solid
     INTERFACE MODELS:
       Option = General Connection
       FRAME CHANGE:
         Option = None
       END
       PITCH CHANGE:
         Option = None
       END
     END
     MESH CONNECTION:
       Option = Automatic
     END
   END
   DOMAIN INTERFACE: Domain Interface 1
     Boundary List1 = Domain Interface 1 Side 1
     Boundary List2 = Domain Interface 1 Side 2
     Interface Type = Solid Solid
     INTERFACE MODELS:
       Option = General Connection
       FRAME CHANGE:
         Option = None
       END
       PITCH CHANGE:
         Option = None
       END
     END
     MESH CONNECTION:
       Option = Automatic
     END
   END
   DOMAIN INTERFACE: SymmetrieFluid
     Boundary List1 = Domain Interface 1 Side 1 1
     Boundary List2 = Domain Interface 2 Side 1
     Interface Type = Fluid Fluid
     INTERFACE MODELS:
       Option = Rotational Periodicity
       AXIS DEFINITION:
         Option = Coordinate Axis
         Rotation Axis = Coord 0.1
       END
     END
     MESH CONNECTION:
       Option = GGI
       INTERSECTION CONTROL:
         Option = Direct
         Periodic Axial Radial Tolerance = 0.001
       END
     END
   END
   DOMAIN INTERFACE: SymmetrieSolid
     Boundary List1 = Domain Interface 2 Side 2
     Boundary List2 = SymmetrieSolid Side 1
     Interface Type = Solid Solid
     INTERFACE MODELS:
       Option = Rotational Periodicity
       AXIS DEFINITION:
         Option = Coordinate Axis
         Rotation Axis = Coord 0.1
       END
     END
     MESH CONNECTION:
       Option = Automatic
       INTERSECTION CONTROL:
         Option = Direct
         Periodic Axial Radial Tolerance = 0.0001
       END
     END
   END
   OUTPUT CONTROL:
     MONITOR OBJECTS:
       MONITOR BALANCES:
         Option = Full
       END
       MONITOR FORCES:
         Option = Full
       END
       MONITOR PARTICLES:
         Option = Full
       END
       MONITOR POINT: MP1
         Cartesian Coordinates = 2.5 [m], 0 [m], 0 [m]
         Coord Frame = Coord 0
         Option = Cartesian Coordinates
         Output Variables List = Courant Number,Pressure,Temperature,Velocity
         MONITOR LOCATION CONTROL:
           Interpolation Type = Nearest Vertex
         END
         POSITION UPDATE FREQUENCY:
           Option = Initial Mesh Only
         END
       END
       MONITOR POINT: MP2
         Cartesian Coordinates = 2.5 [m], 0.012 [m], 0 [m]
         Coord Frame = Coord 0
         Option = Cartesian Coordinates
         Output Variables List = Courant Number,Pressure,Temperature,Velocity
         MONITOR LOCATION CONTROL:
           Interpolation Type = Nearest Vertex
         END
         POSITION UPDATE FREQUENCY:
           Option = Initial Mesh Only
         END
       END
       MONITOR POINT: MP3
         Cartesian Coordinates = 2.5 [m], 0.024 [m], 0 [m]
         Coord Frame = Coord 0
         Option = Cartesian Coordinates
         Output Variables List = Courant Number,Pressure,Temperature,Velocity
         MONITOR LOCATION CONTROL:
           Interpolation Type = Nearest Vertex
         END
         POSITION UPDATE FREQUENCY:
           Option = Initial Mesh Only
         END
       END
       MONITOR POINT: MP3_1
         Coord Frame = Coord 0
         Expression Value = DeltaT
         Option = Expression
       END
       MONITOR RESIDUALS:
         Option = Full
       END
       MONITOR TOTALS:
         Option = Full
       END
     END
     RESULTS:
       File Compression Level = Default
       Option = Standard
     END
   END
   SOLVER CONTROL:
     Turbulence Numerics = First Order
     ADVECTION SCHEME:
       Option = High Resolution
     END
     CONVERGENCE CONTROL:
       Length Scale Option = Conservative
       Maximum Number of Iterations = 200
       Minimum Number of Iterations = 1
       Solid Timescale Control = Auto Timescale
       Timescale Control = Auto Timescale
       Timescale Factor = 1.0
     END
     CONVERGENCE CRITERIA:
       Residual Target = 0.000001
       Residual Type = RMS
     END
     DYNAMIC MODEL CONTROL:
       Global Dynamic Model Control = On
     END
   END
 END
 COMMAND FILE:
   Version = 16.0
   Results Version = 15.0.7
 END
 SIMULATION CONTROL:
   EXECUTION CONTROL:
     EXECUTABLE SELECTION:
       Double Precision = Off
     END
     PARALLEL HOST LIBRARY:
       HOST DEFINITION: rd000d3a21faed
         Host Architecture String = winnt-amd64
         Installation Root = \\hsransys.file.core.windows.net\main\apps\ANSYS \
           Inc\v%v\CFX
       END
     END
     PARTITIONER STEP CONTROL:
       PARTITIONING TYPE:
         Option = MeTiS
         MeTiS Type = k-way
         Partition Size Rule = Automatic
         Partition Weight Factors = 0.00391, 0.00391, 0.00391, 0.00391, \
           0.00391, 0.00391, 0.00391, 0.00391, 0.00391, 0.00391, 0.00391, \
           0.00391, 0.00391, 0.00391, 0.00391, 0.00391, 0.00391, 0.00391, \
           0.00391, 0.00391, 0.00391, 0.00391, 0.00391, 0.00391, 0.00391, \
           0.00391, 0.00391, 0.00391, 0.00391, 0.00391, 0.00391, 0.00391, \
           0.00391, 0.00391, 0.00391, 0.00391, 0.00391, 0.00391, 0.00391, \
           0.00391, 0.00391, 0.00391, 0.00391, 0.00391, 0.00391, 0.00391, \
           0.00391, 0.00391, 0.00391, 0.00391, 0.00391, 0.00391, 0.00391, \
           0.00391, 0.00391, 0.00391, 0.00391, 0.00391, 0.00391, 0.00391, \
           0.00391, 0.00391, 0.00391, 0.00391, 0.00391, 0.00391, 0.00391, \
           0.00391, 0.00391, 0.00391, 0.00391, 0.00391, 0.00391, 0.00391, \
           0.00391, 0.00391, 0.00391, 0.00391, 0.00391, 0.00391, 0.00391, \
           0.00391, 0.00391, 0.00391, 0.00391, 0.00391, 0.00391, 0.00391, \
           0.00391, 0.00391, 0.00391, 0.00391, 0.00391, 0.00391, 0.00391, \
           0.00391, 0.00391, 0.00391, 0.00391, 0.00391, 0.00391, 0.00391, \
           0.00391, 0.00391, 0.00391, 0.00391, 0.00391, 0.00391, 0.00391, \
           0.00391, 0.00391, 0.00391, 0.00391, 0.00391, 0.00391, 0.00391, \
           0.00391, 0.00391, 0.00391, 0.00391, 0.00391, 0.00391, 0.00391, \
           0.00391, 0.00391, 0.00391, 0.00391, 0.00391, 0.00391, 0.00391, \
           0.00391, 0.00391, 0.00391, 0.00391, 0.00391, 0.00391, 0.00391, \
           0.00391, 0.00391, 0.00391, 0.00391, 0.00391, 0.00391, 0.00391, \
           0.00391, 0.00391, 0.00391, 0.00391, 0.00391, 0.00391, 0.00391, \
           0.00391, 0.00391, 0.00391, 0.00391, 0.00391, 0.00391, 0.00391, \
           0.00391, 0.00391, 0.00391, 0.00391, 0.00391, 0.00391, 0.00391, \
           0.00391, 0.00391, 0.00391, 0.00391, 0.00391, 0.00391, 0.00391, \
           0.00391, 0.00391, 0.00391, 0.00391, 0.00391, 0.00391, 0.00391, \
           0.00391, 0.00391, 0.00391, 0.00391, 0.00391, 0.00391, 0.00391, \
           0.00391, 0.00391, 0.00391, 0.00391, 0.00391, 0.00391, 0.00391, \
           0.00391, 0.00391, 0.00391, 0.00391, 0.00391, 0.00391, 0.00391, \
           0.00391, 0.00391, 0.00391, 0.00391, 0.00391, 0.00391, 0.00391, \
           0.00391, 0.00391, 0.00391, 0.00391, 0.00391, 0.00391, 0.00391, \
           0.00391, 0.00391, 0.00391, 0.00391, 0.00391, 0.00391, 0.00391, \
           0.00391, 0.00391, 0.00391, 0.00391, 0.00391, 0.00391, 0.00391, \
           0.00391, 0.00391, 0.00391, 0.00391, 0.00391, 0.00391, 0.00391, \
           0.00391, 0.00391, 0.00391, 0.00391, 0.00391, 0.00391, 0.00391, \
           0.00391, 0.00391, 0.00391, 0.00391, 0.00391, 0.00391, 0.00391, \
           0.00391, 0.00391, 0.00391, 0.00391, 0.00391, 0.00391, 0.00391
       END
     END
     RUN DEFINITION:
       Solver Input File = \
         \\10.10.13.6\C\Resources\directory\3301acebc8f4463d990a819988261bb5.H\
         SR.AzureEE.HpcWorkerRole.jobdata\job-4\pipe02.def
       Run Mode = Full
     END
     SOLVER STEP CONTROL:
       PARALLEL ENVIRONMENT:
         Start Method = MSMPI2
         Number of Processes = 256
         Parallel Host List = rd000d3a21faed*256
       END
     END
   END
 END
 

 +--------------------------------------------------------------------+
 |                                                                    |
 |                            Partitioning                            |
 |                                                                    |
 +--------------------------------------------------------------------+




 +--------------------------------------------------------------------+
 |                                                                    |
 |                 ANSYS(R) CFX(R) Partitioner 15.0.7                 |
 |                                                                    |
 | Version 2014.04.10-23.00-131675     Thu Apr 10 23:23:37 GMTDT 2014 |
 |                                                                    |
 |                        Executable Attributes                       |
 |                                                                    |
 |          single-64bit-int32-supfort-optimised-noprof-lcomp         |
 |                                                                    |
 | (C) 2014 ANSYS, Inc.                                               |
 |                                                                    |
 | All rights reserved. Unauthorized use, distribution or duplication |
 | is prohibited. This product is subject to U.S. laws governing      |
 | export and re-export. For full Legal Notice, see documentation.    |
 +--------------------------------------------------------------------+




 +--------------------------------------------------------------------+
 |                  Job Information at Start of Run                   |
 +--------------------------------------------------------------------+

 Run mode:       partitioning run

 +------------------------------+------+--------+----------+----------+
 | Host                         | Mesh |  PID   |     Job Started     |
 |                              | Part |        | DD/MM/YY | hh:mm:ss |
 +------------------------------+------+--------+----------+----------+
 | RD000D3A21FAED               |    1 |   2300 | 29/05/15 | 07:23:49 |
 +------------------------------+------+--------+----------+----------+


 +--------------------------------------------------------------------+
 |        Memory Allocated for Run  (Actual usage may be less)        |
 +--------------------------------------------------------------------+

           | Real       | Integer    | Character | Logical  | Double
 ----------+------------+------------+-----------+----------+----------
 Mwords    |      16.30 |      29.37 |      3.39 |     0.12 |     1.20
 Mbytes    |      62.17 |     112.04 |      3.24 |     0.46 |     9.16
 ----------+------------+------------+-----------+----------+----------


 +--------------------------------------------------------------------+
 |                  Host Memory Information (Mbytes)                  |
 +--------------------------------------------------------------------+
 |          Host           |     System     |   Allocated    |   %    |
 +-------------------------+----------------+----------------+--------+
 | RD000D3A21FAED          |     57343.55   |       187.06   |   0.33 |
 +-------------------------+----------------+----------------+--------+

 +--------------------------------------------------------------------+
 |                          Mesh Statistics                           |
 +--------------------------------------------------------------------+

 Domain Name : FluidDom

     Total Number of Nodes                                =      448000

     Total Number of Elements                             =      402597
         Total Number of Prisms                           =        4995
         Total Number of Hexahedrons                      =      397602

     Total Number of Faces                                =       93713

 Domain Name : TubeDom

     Total Number of Nodes                                =       64212

     Total Number of Elements                             =       30322
         Total Number of Hexahedrons                      =       30322

     Total Number of Faces                                =       64208
 
 Global Statistics :

     Global Number of Nodes                               =      512212

     Global Number of Elements                            =      432919
         Total Number of Prisms                           =        4995
         Total Number of Hexahedrons                      =      427924

     Global Number of Faces                               =      157921

 Domain Interface Name : Default Fluid Solid Interface

     Discretization type                                  =         GGI
     Intersection type                                    =      Direct
     Non-overlap area fraction on side 1                  =    6.49E-02
     Non-overlap area fraction on side 2                  =    6.55E-02

 Domain Interface Name : Domain Interface 1

     Discretization type                                  =         GGI
     Intersection type                                    =      Direct
     Non-overlap area fraction on side 1                  =    7.27E-03
     Non-overlap area fraction on side 2                  =    1.66E-02

 Domain Interface Name : SymmetrieFluid

     Discretization type                                  =         GGI
     Intersection type                                    =      Direct
     Non-overlap area fraction on side 1                  =    0.00E+00
     Non-overlap area fraction on side 2                  =    0.00E+00

 Domain Interface Name : SymmetrieSolid

     Discretization type                                  =         1:1
     Intersection type                                    =      Direct

 +--------------------------------------------------------------------+
 |                     Vertex Based Partitioning                      |
 +--------------------------------------------------------------------+

 Partitioning of domain: FluidDom

 - Partitioning tool:       MeTiS multilevel k-way algorithm
 - Number of partitions:           256
 - Number of graph-nodes:       448000
 - Number of graph-edges:      2998024

 Partitioning of domain: TubeDom

 - Partitioning tool:       MeTiS multilevel k-way algorithm
 - Number of partitions:           256
 - Number of graph-nodes:        60714
 - Number of graph-edges:       304120

 +--------------------------------------------------------------------+
 |                      Partitioning Information                      |
 +--------------------------------------------------------------------+

 Partitioning information for domain: FluidDom

        +------------------+------------------------+-----------------+
        |     Elements     |        Vertices        |     Faces       |
 +------+------------------+------------------------+-----------------+
 | Part |   Number     %   |   Number     %   %Ovlp |  Number     %   |
 +------+------------------+------------------------+-----------------+
 | Full |    402597        |    448000              |    93713        |
 +------+------------------+------------------------+-----------------+
 |    1 |      2052    0.4 |      2976    0.4  42.4 |      808    0.5 |
 |    2 |      2346    0.4 |      3269    0.4  44.1 |      644    0.4 |
 |    3 |      2462    0.4 |      3355    0.4  42.2 |      608    0.3 |
 |    4 |      1825    0.3 |      2748    0.4  41.7 |      948    0.5 |
 |    5 |      2092    0.4 |      3222    0.4  49.9 |      818    0.5 |
 |    6 |      2278    0.4 |      3104    0.4  40.9 |      438    0.2 |
 |    7 |      2129    0.4 |      2942    0.4  40.4 |      613    0.3 |
 |    8 |      2077    0.4 |      2861    0.4  39.7 |      644    0.4 |
 |    9 |      2475    0.4 |      3355    0.4  42.1 |      582    0.3 |
 |   10 |      1750    0.3 |      2648    0.3  41.8 |      921    0.5 |
 |   11 |      1779    0.3 |      2799    0.4  46.8 |      973    0.6 |
 |   12 |      2555    0.5 |      3509    0.4  44.3 |      588    0.3 |
 |   13 |      2065    0.4 |      2948    0.4  42.9 |      660    0.4 |
 |   14 |      2166    0.4 |      3156    0.4  44.6 |      691    0.4 |
 |   15 |      2207    0.4 |      3169    0.4  43.6 |      728    0.4 |
 |   16 |      2348    0.4 |      3251    0.4  43.1 |      593    0.3 |
 |   17 |      2299    0.4 |      3300    0.4  45.3 |      706    0.4 |
 |   18 |      2168    0.4 |      3122    0.4  44.8 |      644    0.4 |
 |   19 |      2243    0.4 |      3267    0.4  47.6 |      697    0.4 |
 |   20 |      2409    0.4 |      3352    0.4  44.6 |      512    0.3 |
 |   21 |      2375    0.4 |      3353    0.4  44.4 |      701    0.4 |
 |   22 |      1614    0.3 |      2527    0.3  42.8 |      979    0.6 |
 |   23 |      1706    0.3 |      2589    0.3  41.4 |      926    0.5 |
 |   24 |      2390    0.4 |      3347    0.4  44.9 |      645    0.4 |
 |   25 |      1996    0.4 |      2815    0.4  38.8 |      678    0.4 |
 |   26 |      2166    0.4 |      2830    0.4  35.3 |      360    0.2 |
 |   27 |      2303    0.4 |      3135    0.4  39.8 |      560    0.3 |
 |   28 |      2284    0.4 |      3316    0.4  46.0 |      747    0.4 |
 |   29 |      2345    0.4 |      3232    0.4  43.5 |      586    0.3 |
 |   30 |      1845    0.3 |      2764    0.4  43.8 |      875    0.5 |
 |   31 |      2088    0.4 |      3072    0.4  44.4 |      863    0.5 |
 |   32 |      2376    0.4 |      3285    0.4  42.7 |      656    0.4 |
 |   33 |      2324    0.4 |      3211    0.4  41.7 |      600    0.3 |
 |   34 |      2232    0.4 |      3333    0.4  48.9 |      778    0.4 |
 |   35 |      2150    0.4 |      3245    0.4  49.0 |      778    0.4 |
 |   36 |      2313    0.4 |      3109    0.4  39.0 |      443    0.3 |
 |   37 |      1673    0.3 |      2544    0.3  39.8 |      960    0.5 |
 |   38 |      2398    0.4 |      3286    0.4  41.9 |      619    0.4 |
 |   39 |      2475    0.4 |      3437    0.4  44.3 |      644    0.4 |
 |   40 |      1715    0.3 |      2589    0.3  41.7 |      890    0.5 |
 |   41 |      2238    0.4 |      3028    0.4  39.7 |      439    0.2 |
 |   42 |      2054    0.4 |      3188    0.4  49.2 |      868    0.5 |
 |   43 |      1967    0.4 |      2926    0.4  43.2 |      879    0.5 |
 |   44 |      2508    0.5 |      3472    0.4  44.7 |      623    0.4 |
 |   45 |      2316    0.4 |      3144    0.4  40.7 |      461    0.3 |
 |   46 |      2345    0.4 |      3456    0.4  49.0 |      739    0.4 |
 |   47 |      2460    0.4 |      3416    0.4  44.7 |      616    0.3 |
 |   48 |      1739    0.3 |      2620    0.3  42.4 |      906    0.5 |
 |   49 |      2068    0.4 |      3083    0.4  45.2 |      804    0.5 |
 |   50 |      2241    0.4 |      3014    0.4  39.0 |      433    0.2 |
 |   51 |      2400    0.4 |      3319    0.4  43.1 |      618    0.4 |
 |   52 |      1940    0.4 |      2903    0.4  44.0 |      895    0.5 |
 |   53 |      2304    0.4 |      3089    0.4  38.5 |      456    0.3 |
 |   54 |      2212    0.4 |      3113    0.4  41.6 |      687    0.4 |
 |   55 |      2370    0.4 |      3414    0.4  47.5 |      694    0.4 |
 |   56 |      1910    0.3 |      2820    0.4  43.2 |      850    0.5 |
 |   57 |      1929    0.4 |      2852    0.4  43.5 |      840    0.5 |
 |   58 |      2432    0.4 |      3418    0.4  46.6 |      586    0.3 |
 |   59 |      2257    0.4 |      3119    0.4  41.0 |      647    0.4 |
 |   60 |      1983    0.4 |      2665    0.3  35.6 |      517    0.3 |
 |   61 |      2466    0.4 |      3366    0.4  42.5 |      581    0.3 |
 |   62 |      1747    0.3 |      2636    0.3  41.7 |      912    0.5 |
 |   63 |      2073    0.4 |      3124    0.4  47.6 |      788    0.4 |
 |   64 |      2351    0.4 |      3258    0.4  42.1 |      596    0.3 |
 |   65 |      2410    0.4 |      3333    0.4  44.2 |      459    0.3 |
 |   66 |      2164    0.4 |      3272    0.4  49.5 |      771    0.4 |
 |   67 |      2161    0.4 |      3036    0.4  42.5 |      612    0.3 |
 |   68 |      2095    0.4 |      2986    0.4  43.5 |      626    0.4 |
 |   69 |      2442    0.4 |      3397    0.4  44.2 |      654    0.4 |
 |   70 |      1651    0.3 |      2508    0.3  40.2 |      937    0.5 |
 |   71 |      2386    0.4 |      3318    0.4  42.9 |      643    0.4 |
 |   72 |      2169    0.4 |      3146    0.4  44.7 |      830    0.5 |
 |   73 |      1980    0.4 |      2790    0.4  38.9 |      654    0.4 |
 |   74 |      2208    0.4 |      2867    0.4  34.2 |      354    0.2 |
 |   75 |      2357    0.4 |      3349    0.4  46.2 |      677    0.4 |
 |   76 |      2159    0.4 |      2905    0.4  37.1 |      562    0.3 |
 |   77 |      1604    0.3 |      2521    0.3  42.1 |     1010    0.6 |
 |   78 |      2419    0.4 |      3348    0.4  43.5 |      660    0.4 |
 |   79 |      2493    0.5 |      3414    0.4  43.5 |      596    0.3 |
 |   80 |      2016    0.4 |      2983    0.4  44.8 |      851    0.5 |
 |   81 |      2206    0.4 |      3021    0.4  39.8 |      619    0.4 |
 |   82 |      2119    0.4 |      2921    0.4  39.0 |      631    0.4 |
 |   83 |      2136    0.4 |      2937    0.4  40.4 |      604    0.3 |
 |   84 |      2069    0.4 |      2789    0.4  36.7 |      589    0.3 |
 |   85 |      2349    0.4 |      3339    0.4  46.8 |      634    0.4 |
 |   86 |      1861    0.3 |      2771    0.4  43.4 |      857    0.5 |
 |   87 |      2325    0.4 |      3209    0.4  43.8 |      594    0.3 |
 |   88 |      1710    0.3 |      2643    0.3  44.0 |      959    0.5 |
 |   89 |      2328    0.4 |      3310    0.4  46.4 |      651    0.4 |
 |   90 |      1960    0.4 |      2878    0.4  44.2 |      843    0.5 |
 |   91 |      2409    0.4 |      3326    0.4  43.3 |      621    0.4 |
 |   92 |      1894    0.3 |      2841    0.4  44.5 |      875    0.5 |
 |   93 |      2116    0.4 |      2956    0.4  41.1 |      646    0.4 |
 |   94 |      2247    0.4 |      3060    0.4  39.1 |      615    0.3 |
 |   95 |      2111    0.4 |      2929    0.4  39.8 |      639    0.4 |
 |   96 |      2053    0.4 |      2729    0.3  35.0 |      492    0.3 |
 |   97 |      2070    0.4 |      3056    0.4  45.1 |      764    0.4 |
 |   98 |      2249    0.4 |      3019    0.4  38.6 |      441    0.2 |
 |   99 |      2415    0.4 |      3279    0.4  42.3 |      505    0.3 |
 |  100 |      2009    0.4 |      2909    0.4  43.3 |      714    0.4 |
 |  101 |      1828    0.3 |      2764    0.4  44.2 |      889    0.5 |
 |  102 |      2505    0.5 |      3404    0.4  42.9 |      579    0.3 |
 |  103 |      1816    0.3 |      2722    0.3  41.0 |      928    0.5 |
 |  104 |      2394    0.4 |      3327    0.4  43.1 |      643    0.4 |
 |  105 |      2166    0.4 |      2999    0.4  40.3 |      606    0.3 |
 |  106 |      2031    0.4 |      2785    0.4  37.9 |      560    0.3 |
 |  107 |      2072    0.4 |      3013    0.4  43.3 |      722    0.4 |
 |  108 |      2133    0.4 |      2769    0.4  34.1 |      340    0.2 |
 |  109 |      2467    0.4 |      3411    0.4  44.2 |      613    0.3 |
 |  110 |      1732    0.3 |      2662    0.3  43.8 |      932    0.5 |
 |  111 |      2421    0.4 |      3309    0.4  42.2 |      621    0.4 |
 |  112 |      1701    0.3 |      2572    0.3  41.8 |      904    0.5 |
 |  113 |      2430    0.4 |      3421    0.4  46.7 |      616    0.3 |
 |  114 |      1893    0.3 |      2735    0.3  35.8 |      888    0.5 |
 |  115 |      2179    0.4 |      3060    0.4  41.0 |      667    0.4 |
 |  116 |      2010    0.4 |      2805    0.4  34.2 |      768    0.4 |
 |  117 |      2334    0.4 |      3234    0.4  43.5 |      514    0.3 |
 |  118 |      2062    0.4 |      2970    0.4  42.7 |      729    0.4 |
 |  119 |      2361    0.4 |      3284    0.4  43.2 |      650    0.4 |
 |  120 |      1643    0.3 |      2552    0.3  42.9 |      969    0.5 |
 |  121 |      2506    0.5 |      3560    0.5  48.6 |      610    0.3 |
 |  122 |      2145    0.4 |      3045    0.4  41.6 |      700    0.4 |
 |  123 |      2186    0.4 |      3054    0.4  40.7 |      675    0.4 |
 |  124 |      2265    0.4 |      3165    0.4  41.8 |      650    0.4 |
 |  125 |      1983    0.4 |      2852    0.4  42.1 |      769    0.4 |
 |  126 |      1918    0.3 |      2860    0.4  44.7 |      851    0.5 |
 |  127 |      1828    0.3 |      2730    0.3  43.0 |      853    0.5 |
 |  128 |      2506    0.5 |      3438    0.4  43.9 |      597    0.3 |
 |  129 |      2352    0.4 |      3153    0.4  38.6 |      449    0.3 |
 |  130 |      2212    0.4 |      3229    0.4  46.9 |      697    0.4 |
 |  131 |      1971    0.4 |      2929    0.4  43.9 |      877    0.5 |
 |  132 |      2457    0.4 |      3449    0.4  45.2 |      672    0.4 |
 |  133 |      1785    0.3 |      2715    0.3  42.3 |      937    0.5 |
 |  134 |      2465    0.4 |      3422    0.4  44.2 |      648    0.4 |
 |  135 |      2435    0.4 |      3410    0.4  45.3 |      582    0.3 |
 |  136 |      2107    0.4 |      3076    0.4  45.2 |      721    0.4 |
 |  137 |      2440    0.4 |      3388    0.4  43.9 |      622    0.4 |
 |  138 |      1797    0.3 |      2714    0.3  42.6 |      924    0.5 |
 |  139 |      1832    0.3 |      2792    0.4  43.5 |      960    0.5 |
 |  140 |      2448    0.4 |      3310    0.4  41.5 |      584    0.3 |
 |  141 |      2086    0.4 |      3129    0.4  47.7 |      754    0.4 |
 |  142 |      2211    0.4 |      3115    0.4  43.4 |      618    0.4 |
 |  143 |      2227    0.4 |      3170    0.4  43.2 |      712    0.4 |
 |  144 |      2265    0.4 |      3131    0.4  41.1 |      599    0.3 |
 |  145 |      2173    0.4 |      2966    0.4  38.3 |      594    0.3 |
 |  146 |      2186    0.4 |      2985    0.4  39.2 |      623    0.4 |
 |  147 |      2391    0.4 |      3362    0.4  45.3 |      655    0.4 |
 |  148 |      2293    0.4 |      3227    0.4  43.3 |      674    0.4 |
 |  149 |      2475    0.4 |      3456    0.4  45.2 |      634    0.4 |
 |  150 |      2479    0.4 |      3533    0.5  48.7 |      589    0.3 |
 |  151 |      1830    0.3 |      2748    0.4  43.6 |      872    0.5 |
 |  152 |      1683    0.3 |      2584    0.3  40.8 |      985    0.6 |
 |  153 |      2058    0.4 |      3131    0.4  48.4 |      798    0.5 |
 |  154 |      2334    0.4 |      3238    0.4  43.8 |      512    0.3 |
 |  155 |      2495    0.5 |      3365    0.4  41.8 |      568    0.3 |
 |  156 |      1781    0.3 |      2705    0.3  43.5 |      921    0.5 |
 |  157 |      2129    0.4 |      2935    0.4  40.3 |      611    0.3 |
 |  158 |      2059    0.4 |      2899    0.4  41.4 |      657    0.4 |
 |  159 |      1773    0.3 |      2651    0.3  41.3 |      896    0.5 |
 |  160 |      2432    0.4 |      3384    0.4  44.1 |      632    0.4 |
 |  161 |      2361    0.4 |      3238    0.4  41.8 |      629    0.4 |
 |  162 |      2032    0.4 |      3034    0.4  46.0 |      738    0.4 |
 |  163 |      2469    0.4 |      3367    0.4  42.5 |      572    0.3 |
 |  164 |      1762    0.3 |      2643    0.3  41.5 |      890    0.5 |
 |  165 |      2278    0.4 |      3084    0.4  40.1 |      441    0.2 |
 |  166 |      1982    0.4 |      2973    0.4  45.4 |      765    0.4 |
 |  167 |      2257    0.4 |      3033    0.4  38.6 |      406    0.2 |
 |  168 |      2051    0.4 |      3106    0.4  46.5 |      810    0.5 |
 |  169 |      2140    0.4 |      3104    0.4  44.0 |      674    0.4 |
 |  170 |      2431    0.4 |      3270    0.4  40.1 |      423    0.2 |
 |  171 |      2252    0.4 |      3263    0.4  47.5 |      666    0.4 |
 |  172 |      2150    0.4 |      3034    0.4  42.1 |      600    0.3 |
 |  173 |      2328    0.4 |      3268    0.4  43.3 |      701    0.4 |
 |  174 |      1933    0.4 |      2919    0.4  44.5 |      913    0.5 |
 |  175 |      2299    0.4 |      3343    0.4  46.5 |      724    0.4 |
 |  176 |      1994    0.4 |      2870    0.4  40.2 |      793    0.4 |
 |  177 |      1834    0.3 |      2751    0.4  43.4 |      877    0.5 |
 |  178 |      2394    0.4 |      3323    0.4  44.7 |      597    0.3 |
 |  179 |      2339    0.4 |      3278    0.4  43.2 |      667    0.4 |
 |  180 |      1924    0.3 |      2896    0.4  43.5 |      928    0.5 |
 |  181 |      2195    0.4 |      2940    0.4  37.9 |      428    0.2 |
 |  182 |      2287    0.4 |      3301    0.4  47.0 |      678    0.4 |
 |  183 |      2246    0.4 |      3178    0.4  44.5 |      582    0.3 |
 |  184 |      2031    0.4 |      2987    0.4  44.7 |      714    0.4 |
 |  185 |      2382    0.4 |      3255    0.4  42.2 |      605    0.3 |
 |  186 |      1741    0.3 |      2635    0.3  40.7 |      929    0.5 |
 |  187 |      2338    0.4 |      3239    0.4  42.8 |      613    0.3 |
 |  188 |      1633    0.3 |      2456    0.3  36.1 |      916    0.5 |
 |  189 |      2283    0.4 |      3182    0.4  39.2 |      687    0.4 |
 |  190 |      1951    0.4 |      2872    0.4  39.8 |      819    0.5 |
 |  191 |      2015    0.4 |      2967    0.4  44.7 |      741    0.4 |
 |  192 |      2219    0.4 |      2972    0.4  38.2 |      416    0.2 |
 |  193 |      2215    0.4 |      3049    0.4  39.6 |      599    0.3 |
 |  194 |      2259    0.4 |      3074    0.4  39.9 |      552    0.3 |
 |  195 |      1983    0.4 |      2936    0.4  44.7 |      741    0.4 |
 |  196 |      2262    0.4 |      3063    0.4  40.2 |      432    0.2 |
 |  197 |      1767    0.3 |      2627    0.3  40.9 |      865    0.5 |
 |  198 |      2382    0.4 |      3302    0.4  43.2 |      620    0.4 |
 |  199 |      1957    0.4 |      2794    0.4  40.9 |      743    0.4 |
 |  200 |      2360    0.4 |      3435    0.4  49.2 |      691    0.4 |
 |  201 |      2477    0.4 |      3421    0.4  43.8 |      613    0.3 |
 |  202 |      1852    0.3 |      2785    0.4  42.0 |      924    0.5 |
 |  203 |      2434    0.4 |      3312    0.4  41.7 |      578    0.3 |
 |  204 |      1761    0.3 |      2621    0.3  39.1 |      901    0.5 |
 |  205 |      2227    0.4 |      3218    0.4  46.1 |      667    0.4 |
 |  206 |      2037    0.4 |      3014    0.4  45.3 |      711    0.4 |
 |  207 |      2251    0.4 |      3040    0.4  39.7 |      421    0.2 |
 |  208 |      2114    0.4 |      3084    0.4  45.1 |      666    0.4 |
 |  209 |      2360    0.4 |      3236    0.4  41.5 |      610    0.3 |
 |  210 |      1806    0.3 |      2681    0.3  41.0 |      869    0.5 |
 |  211 |      2218    0.4 |      3032    0.4  38.8 |      588    0.3 |
 |  212 |      2191    0.4 |      3010    0.4  38.9 |      621    0.4 |
 |  213 |      2409    0.4 |      3288    0.4  42.7 |      540    0.3 |
 |  214 |      1801    0.3 |      2726    0.3  43.6 |      873    0.5 |
 |  215 |      2116    0.4 |      2929    0.4  38.3 |      647    0.4 |
 |  216 |      2180    0.4 |      3006    0.4  39.3 |      613    0.3 |
 |  217 |      2266    0.4 |      3146    0.4  42.5 |      637    0.4 |
 |  218 |      1654    0.3 |      2564    0.3  42.1 |      967    0.5 |
 |  219 |      2318    0.4 |      3195    0.4  42.8 |      580    0.3 |
 |  220 |      1762    0.3 |      2655    0.3  42.6 |      880    0.5 |
 |  221 |      2504    0.5 |      3517    0.4  46.3 |      603    0.3 |
 |  222 |      2151    0.4 |      3050    0.4  41.5 |      680    0.4 |
 |  223 |      1993    0.4 |      3021    0.4  47.1 |      776    0.4 |
 |  224 |      2309    0.4 |      3087    0.4  38.0 |      428    0.2 |
 |  225 |      2030    0.4 |      3064    0.4  46.6 |      782    0.4 |
 |  226 |      2205    0.4 |      3002    0.4  39.3 |      449    0.3 |
 |  227 |      2478    0.4 |      3395    0.4  43.2 |      586    0.3 |
 |  228 |      2031    0.4 |      2976    0.4  43.1 |      824    0.5 |
 |  229 |      1632    0.3 |      2485    0.3  40.4 |      911    0.5 |
 |  230 |      2411    0.4 |      3295    0.4  43.2 |      575    0.3 |
 |  231 |      2301    0.4 |      3119    0.4  40.8 |      414    0.2 |
 |  232 |      2038    0.4 |      3077    0.4  47.3 |      772    0.4 |
 |  233 |      2047    0.4 |      3048    0.4  45.1 |      772    0.4 |
 |  234 |      2221    0.4 |      2968    0.4  38.2 |      399    0.2 |
 |  235 |      1909    0.3 |      2847    0.4  42.6 |      885    0.5 |
 |  236 |      2491    0.5 |      3391    0.4  42.9 |      563    0.3 |
 |  237 |      2390    0.4 |      3294    0.4  43.1 |      610    0.3 |
 |  238 |      1655    0.3 |      2529    0.3  40.4 |      932    0.5 |
 |  239 |      2453    0.4 |      3422    0.4  44.8 |      599    0.3 |
 |  240 |      2200    0.4 |      3086    0.4  41.0 |      660    0.4 |
 |  241 |      2033    0.4 |      2956    0.4  43.8 |      688    0.4 |
 |  242 |      2244    0.4 |      3091    0.4  41.6 |      513    0.3 |
 |  243 |      2148    0.4 |      3070    0.4  44.0 |      641    0.4 |
 |  244 |      2210    0.4 |      3077    0.4  42.2 |      570    0.3 |
 |  245 |      2435    0.4 |      3359    0.4  45.1 |      570    0.3 |
 |  246 |      1934    0.4 |      2987    0.4  46.9 |      925    0.5 |
 |  247 |      2348    0.4 |      3258    0.4  42.4 |      659    0.4 |
 |  248 |      1653    0.3 |      2519    0.3  40.5 |      931    0.5 |
 |  249 |      2536    0.5 |      3466    0.4  43.6 |      563    0.3 |
 |  250 |      1907    0.3 |      2885    0.4  45.8 |      880    0.5 |
 |  251 |      2460    0.4 |      3393    0.4  43.2 |      597    0.3 |
 |  252 |      1873    0.3 |      2847    0.4  44.2 |      929    0.5 |
 |  253 |      2255    0.4 |      3181    0.4  44.3 |      581    0.3 |
 |  254 |      2042    0.4 |      2990    0.4  44.5 |      712    0.4 |
 |  255 |      2221    0.4 |      3103    0.4  41.9 |      639    0.4 |
 |  256 |      2098    0.4 |      2960    0.4  41.9 |      636    0.4 |
 +------+------------------+------------------------+-----------------+
 | Min  |      1604    0.3 |      2456    0.3  36.1 |      340    0.2 |
 |(part)|           (   77)|           (  188   188)|          (  108)|
 +------+------------------+------------------------+-----------------+
 | Max  |      2555    0.5 |      3560    0.5  48.6 |     1010    0.6 |
 |(part)|           (   12)|           (  121   121)|          (   77)|
 +------+------------------+------------------------+-----------------+
 | Ave  |      2153    0.4 |      3061    0.4  42.8 |      689    0.4 |
 +------+------------------+------------------------+-----------------+
 | Sum  |    551125  100.0 |    783552  100.0  42.8 |   176493  100.0 |
 +------+------------------+------------------------+-----------------+

 Partitioning information for domain: TubeDom

        +------------------+------------------------+-----------------+
        |     Elements     |        Vertices        |     Faces       |
 +------+------------------+------------------------+-----------------+
 | Part |   Number     %   |   Number     %   %Ovlp |  Number     %   |
 +------+------------------+------------------------+-----------------+
 | Full |     30322        |     64212              |    64208        |
 +------+------------------+------------------------+-----------------+
 |    1 |       134    0.2 |       322    0.2  23.6 |      284    0.2 |
 |    2 |       137    0.2 |       328    0.2  24.4 |      288    0.2 |
 |    3 |       135    0.2 |       334    0.2  26.3 |      290    0.2 |
 |    4 |       140    0.2 |       346    0.2  28.9 |      296    0.2 |
 |    5 |       415    0.5 |      1026    0.5  75.6 |      624    0.5 |
 |    6 |       544    0.7 |      1244    0.7  80.1 |      697    0.6 |
 |    7 |       407    0.5 |       944    0.5  74.2 |      591    0.5 |
 |    8 |       403    0.5 |       914    0.5  73.3 |      588    0.5 |
 |    9 |       138    0.2 |       334    0.2  25.1 |      292    0.2 |
 |   10 |       141    0.2 |       342    0.2  25.7 |      298    0.2 |
 |   11 |       137    0.2 |       336    0.2  27.4 |      290    0.2 |
 |   12 |       140    0.2 |       342    0.2  25.7 |      298    0.2 |
 |   13 |       418    0.5 |      1004    0.5  74.5 |      624    0.5 |
 |   14 |       523    0.7 |      1256    0.7  80.6 |      719    0.6 |
 |   15 |       446    0.6 |      1062    0.6  76.5 |      650    0.5 |
 |   16 |       474    0.6 |      1094    0.6  76.6 |      651    0.5 |
 |   17 |       416    0.5 |      1002    0.5  74.5 |      606    0.5 |
 |   18 |       495    0.6 |      1186    0.6  79.1 |      699    0.6 |
 |   19 |       338    0.4 |       832    0.4  69.2 |      531    0.4 |
 |   20 |       525    0.7 |      1202    0.6  79.5 |      676    0.5 |
 |   21 |       143    0.2 |       344    0.2  25.6 |      300    0.2 |
 |   22 |       142    0.2 |       354    0.2  27.1 |      306    0.2 |
 |   23 |       138    0.2 |       332    0.2  24.1 |      292    0.2 |
 |   24 |       140    0.2 |       338    0.2  24.9 |      296    0.2 |
 |   25 |       382    0.5 |       924    0.5  73.6 |      586    0.5 |
 |   26 |       449    0.6 |      1014    0.5  74.8 |      605    0.5 |
 |   27 |       532    0.7 |      1214    0.6  78.9 |      717    0.6 |
 |   28 |       429    0.5 |      1010    0.5  74.7 |      623    0.5 |
 |   29 |       140    0.2 |       340    0.2  24.7 |      298    0.2 |
 |   30 |       139    0.2 |       334    0.2  24.0 |      294    0.2 |
 |   31 |       136    0.2 |       332    0.2  25.3 |      290    0.2 |
 |   32 |       143    0.2 |       344    0.2  25.6 |      300    0.2 |
 |   33 |       478    0.6 |      1108    0.6  77.3 |      662    0.5 |
 |   34 |       415    0.5 |      1026    0.5  75.6 |      621    0.5 |
 |   35 |       423    0.5 |      1044    0.6  76.6 |      626    0.5 |
 |   36 |       536    0.7 |      1224    0.7  80.1 |      685    0.6 |
 |   37 |       140    0.2 |       340    0.2  24.7 |      298    0.2 |
 |   38 |       138    0.2 |       332    0.2  24.1 |      292    0.2 |
 |   39 |       144    0.2 |       356    0.2  28.1 |      306    0.2 |
 |   40 |       144    0.2 |       344    0.2  25.6 |      300    0.2 |
 |   41 |       557    0.7 |      1274    0.7  80.7 |      710    0.6 |
 |   42 |       435    0.5 |      1112    0.6  77.7 |      668    0.5 |
 |   43 |       136    0.2 |       332    0.2  26.5 |      288    0.2 |
 |   44 |       140    0.2 |       340    0.2  24.7 |      298    0.2 |
 |   45 |       546    0.7 |      1254    0.7  79.6 |      708    0.6 |
 |   46 |       333    0.4 |       848    0.5  71.0 |      531    0.4 |
 |   47 |       140    0.2 |       336    0.2  26.2 |      292    0.2 |
 |   48 |       138    0.2 |       332    0.2  25.3 |      290    0.2 |
 |   49 |       470    0.6 |      1178    0.6  79.3 |      697    0.6 |
 |   50 |       563    0.7 |      1290    0.7  80.5 |      717    0.6 |
 |   51 |       138    0.2 |       336    0.2  27.4 |      290    0.2 |
 |   52 |       138    0.2 |       338    0.2  26.0 |      294    0.2 |
 |   53 |       542    0.7 |      1238    0.7  79.3 |      717    0.6 |
 |   54 |       456    0.6 |      1082    0.6  76.7 |      658    0.5 |
 |   55 |       138    0.2 |       338    0.2  27.2 |      292    0.2 |
 |   56 |       139    0.2 |       338    0.2  24.9 |      296    0.2 |
 |   57 |       140    0.2 |       340    0.2  24.7 |      298    0.2 |
 |   58 |       138    0.2 |       332    0.2  24.1 |      292    0.2 |
 |   59 |       471    0.6 |      1072    0.6  76.1 |      662    0.5 |
 |   60 |       408    0.5 |       908    0.5  71.8 |      591    0.5 |
 |   61 |       142    0.2 |       346    0.2  26.6 |      300    0.2 |
 |   62 |       139    0.2 |       334    0.2  25.1 |      292    0.2 |
 |   63 |       434    0.5 |      1074    0.6  76.2 |      651    0.5 |
 |   64 |       463    0.6 |      1096    0.6  76.6 |      662    0.5 |
 |   65 |       516    0.7 |      1184    0.6  79.1 |      668    0.5 |
 |   66 |       355    0.4 |       880    0.5  70.9 |      556    0.5 |
 |   67 |       518    0.7 |      1238    0.7  79.3 |      721    0.6 |
 |   68 |       382    0.5 |       888    0.5  72.5 |      556    0.5 |
 |   69 |       137    0.2 |       334    0.2  25.1 |      292    0.2 |
 |   70 |       139    0.2 |       334    0.2  24.0 |      294    0.2 |
 |   71 |       132    0.2 |       352    0.2  30.7 |      296    0.2 |
 |   72 |       154    0.2 |       364    0.2  29.7 |      308    0.2 |
 |   73 |       381    0.5 |       908    0.5  72.5 |      577    0.5 |
 |   74 |       461    0.6 |      1034    0.6  75.2 |      619    0.5 |
 |   75 |       300    0.4 |       732    0.4  65.0 |      488    0.4 |
 |   76 |       379    0.5 |       842    0.4  70.1 |      556    0.5 |
 |   77 |       141    0.2 |       338    0.2  24.9 |      296    0.2 |
 |   78 |       135    0.2 |       330    0.2  25.5 |      288    0.2 |
 |   79 |       137    0.2 |       338    0.2  27.2 |      292    0.2 |
 |   80 |       141    0.2 |       340    0.2  28.2 |      292    0.2 |
 |   81 |       463    0.6 |      1070    0.6  76.1 |      656    0.5 |
 |   82 |       486    0.6 |      1120    0.6  77.5 |      681    0.6 |
 |   83 |       493    0.6 |      1122    0.6  77.2 |      686    0.6 |
 |   84 |       404    0.5 |       912    0.5  72.6 |      595    0.5 |
 |   85 |       143    0.2 |       352    0.2  27.3 |      304    0.2 |
 |   86 |       144    0.2 |       352    0.2  27.3 |      304    0.2 |
 |   87 |       145    0.2 |       348    0.2  26.4 |      302    0.2 |
 |   88 |       139    0.2 |       336    0.2  24.4 |      296    0.2 |
 |   89 |       136    0.2 |       342    0.2  28.7 |      292    0.2 |
 |   90 |       136    0.2 |       330    0.2  26.1 |      286    0.2 |
 |   91 |       136    0.2 |       330    0.2  25.5 |      288    0.2 |
 |   92 |       140    0.2 |       336    0.2  26.8 |      292    0.2 |
 |   93 |       462    0.6 |      1070    0.6  76.3 |      660    0.5 |
 |   94 |       449    0.6 |      1040    0.6  75.8 |      632    0.5 |
 |   95 |       468    0.6 |      1086    0.6  76.8 |      668    0.5 |
 |   96 |       302    0.4 |       686    0.4  64.1 |      474    0.4 |
 |   97 |       460    0.6 |      1134    0.6  77.4 |      680    0.6 |
 |   98 |       540    0.7 |      1228    0.7  79.5 |      695    0.6 |
 |   99 |       349    0.4 |       790    0.4  67.6 |      507    0.4 |
 |  100 |       459    0.6 |      1104    0.6  76.8 |      676    0.5 |
 |  101 |       133    0.2 |       324    0.2  24.7 |      284    0.2 |
 |  102 |       140    0.2 |       334    0.2  24.0 |      294    0.2 |
 |  103 |       137    0.2 |       330    0.2  24.2 |      290    0.2 |
 |  104 |       140    0.2 |       334    0.2  25.1 |      292    0.2 |
 |  105 |       450    0.6 |      1056    0.6  75.9 |      654    0.5 |
 |  106 |       402    0.5 |       946    0.5  73.8 |      587    0.5 |
 |  107 |       351    0.4 |       842    0.4  69.6 |      550    0.4 |
 |  108 |       420    0.5 |       950    0.5  73.7 |      575    0.5 |
 |  109 |       141    0.2 |       340    0.2  24.7 |      298    0.2 |
 |  110 |       134    0.2 |       322    0.2  23.6 |      284    0.2 |
 |  111 |       134    0.2 |       352    0.2  29.5 |      298    0.2 |
 |  112 |       155    0.2 |       368    0.2  30.4 |      310    0.3 |
 |  113 |       141    0.2 |       340    0.2  28.2 |      292    0.2 |
 |  114 |       138    0.2 |       346    0.2  28.9 |      296    0.2 |
 |  115 |       504    0.6 |      1174    0.6  78.9 |      701    0.6 |
 |  116 |       452    0.6 |      1050    0.6  76.4 |      654    0.5 |
 |  117 |       492    0.6 |      1132    0.6  77.4 |      650    0.5 |
 |  118 |       504    0.6 |      1218    0.6  79.0 |      721    0.6 |
 |  119 |       141    0.2 |       344    0.2  25.6 |      300    0.2 |
 |  120 |       141    0.2 |       342    0.2  28.1 |      294    0.2 |
 |  121 |       135    0.2 |       330    0.2  25.5 |      288    0.2 |
 |  122 |       528    0.7 |      1202    0.6  78.9 |      728    0.6 |
 |  123 |       470    0.6 |      1086    0.6  77.3 |      664    0.5 |
 |  124 |       470    0.6 |      1100    0.6  77.6 |      659    0.5 |
 |  125 |       122    0.2 |       300    0.2  14.7 |      277    0.2 |
 |  126 |       144    0.2 |       346    0.2  26.6 |      300    0.2 |
 |  127 |       136    0.2 |       330    0.2  25.5 |      288    0.2 |
 |  128 |       137    0.2 |       338    0.2  27.2 |      292    0.2 |
 |  129 |       610    0.8 |      1388    0.7  82.0 |      792    0.6 |
 |  130 |       385    0.5 |       966    0.5  73.5 |      599    0.5 |
 |  131 |       139    0.2 |       336    0.2  26.2 |      292    0.2 |
 |  132 |       139    0.2 |       340    0.2  25.9 |      296    0.2 |
 |  133 |       139    0.2 |       338    0.2  27.2 |      292    0.2 |
 |  134 |       144    0.2 |       348    0.2  26.4 |      302    0.2 |
 |  135 |       539    0.7 |      1244    0.7  79.6 |      696    0.6 |
 |  136 |       511    0.6 |      1242    0.7  79.5 |      733    0.6 |
 |  137 |       139    0.2 |       336    0.2  27.4 |      290    0.2 |
 |  138 |       134    0.2 |       322    0.2  23.6 |      284    0.2 |
 |  139 |       139    0.2 |       332    0.2  22.9 |      294    0.2 |
 |  140 |       135    0.2 |       324    0.2  23.5 |      286    0.2 |
 |  141 |       465    0.6 |      1138    0.6  77.9 |      681    0.6 |
 |  142 |       579    0.7 |      1310    0.7  80.5 |      759    0.6 |
 |  143 |       506    0.6 |      1182    0.6  79.2 |      706    0.6 |
 |  144 |       566    0.7 |      1294    0.7  80.2 |      750    0.6 |
 |  145 |       534    0.7 |      1216    0.6  79.9 |      722    0.6 |
 |  146 |       544    0.7 |      1244    0.7  79.7 |      748    0.6 |
 |  147 |       141    0.2 |       336    0.2  23.8 |      296    0.2 |
 |  148 |       485    0.6 |      1114    0.6  77.6 |      668    0.5 |
 |  149 |       141    0.2 |       338    0.2  23.7 |      298    0.2 |
 |  150 |       136    0.2 |       328    0.2  25.6 |      286    0.2 |
 |  151 |       139    0.2 |       334    0.2  24.0 |      294    0.2 |
 |  152 |       140    0.2 |       346    0.2  26.6 |      300    0.2 |
 |  153 |       481    0.6 |      1170    0.6  78.6 |      694    0.6 |
 |  154 |       536    0.7 |      1230    0.7  79.5 |      707    0.6 |
 |  155 |       133    0.2 |       350    0.2  29.7 |      296    0.2 |
 |  156 |       155    0.2 |       368    0.2  30.4 |      310    0.3 |
 |  157 |       479    0.6 |      1090    0.6  77.4 |      668    0.5 |
 |  158 |       536    0.7 |      1234    0.7  80.1 |      736    0.6 |
 |  159 |       134    0.2 |       322    0.2  23.6 |      284    0.2 |
 |  160 |       141    0.2 |       340    0.2  24.7 |      298    0.2 |
 |  161 |       138    0.2 |       336    0.2  27.4 |      290    0.2 |
 |  162 |       415    0.5 |       976    0.5  75.0 |      571    0.5 |
 |  163 |       143    0.2 |       346    0.2  26.6 |      300    0.2 |
 |  164 |       145    0.2 |       352    0.2  27.3 |      304    0.2 |
 |  165 |       586    0.7 |      1348    0.7  81.2 |      746    0.6 |
 |  166 |       549    0.7 |      1342    0.7  81.2 |      782    0.6 |
 |  167 |       599    0.8 |      1392    0.7  82.3 |      762    0.6 |
 |  168 |       519    0.7 |      1268    0.7  80.0 |      746    0.6 |
 |  169 |       542    0.7 |      1316    0.7  81.3 |      754    0.6 |
 |  170 |       596    0.8 |      1362    0.7  82.1 |      746    0.6 |
 |  171 |       273    0.3 |       708    0.4  64.1 |      471    0.4 |
 |  172 |       632    0.8 |      1430    0.8  82.1 |      828    0.7 |
 |  173 |       142    0.2 |       352    0.2  27.3 |      304    0.2 |
 |  174 |       145    0.2 |       348    0.2  26.4 |      302    0.2 |
 |  175 |       367    0.5 |       904    0.5  71.9 |      564    0.5 |
 |  176 |       105    0.1 |       302    0.2  27.2 |      259    0.2 |
 |  177 |       143    0.2 |       358    0.2  30.2 |      302    0.2 |
 |  178 |       150    0.2 |       364    0.2  29.7 |      310    0.3 |
 |  179 |       139    0.2 |       360    0.2  30.0 |      304    0.2 |
 |  180 |       148    0.2 |       366    0.2  32.8 |      304    0.2 |
 |  181 |       650    0.8 |      1474    0.8  83.2 |      807    0.7 |
 |  182 |       290    0.4 |       738    0.4  65.9 |      485    0.4 |
 |  183 |       570    0.7 |      1342    0.7  81.7 |      753    0.6 |
 |  184 |       476    0.6 |      1174    0.6  79.2 |      692    0.6 |
 |  185 |       153    0.2 |       368    0.2  32.6 |      306    0.2 |
 |  186 |       139    0.2 |       354    0.2  29.4 |      300    0.2 |
 |  187 |       143    0.2 |       352    0.2  27.3 |      304    0.2 |
 |  188 |       141    0.2 |       352    0.2  28.4 |      302    0.2 |
 |  189 |       461    0.6 |      1080    0.6  76.7 |      633    0.5 |
 |  190 |       493    0.6 |      1214    0.6  79.7 |      726    0.6 |
 |  191 |       540    0.7 |      1306    0.7  80.4 |      765    0.6 |
 |  192 |       601    0.8 |      1372    0.7  81.3 |      773    0.6 |
 |  193 |       582    0.7 |      1332    0.7  81.7 |      772    0.6 |
 |  194 |       547    0.7 |      1280    0.7  80.2 |      746    0.6 |
 |  195 |       506    0.6 |      1230    0.7  79.3 |      728    0.6 |
 |  196 |       603    0.8 |      1376    0.7  81.2 |      763    0.6 |
 |  197 |       147    0.2 |       348    0.2  29.9 |      294    0.2 |
 |  198 |       141    0.2 |       366    0.2  31.7 |      306    0.2 |
 |  199 |       140    0.2 |       362    0.2  29.8 |      306    0.2 |
 |  200 |       154    0.2 |       384    0.2  33.3 |      320    0.3 |
 |  201 |       140    0.2 |       342    0.2  25.7 |      298    0.2 |
 |  202 |       141    0.2 |       342    0.2  25.7 |      298    0.2 |
 |  203 |       142    0.2 |       344    0.2  25.6 |      300    0.2 |
 |  204 |       143    0.2 |       344    0.2  25.6 |      300    0.2 |
 |  205 |       518    0.7 |      1250    0.7  80.0 |      723    0.6 |
 |  206 |       537    0.7 |      1286    0.7  81.0 |      755    0.6 |
 |  207 |       636    0.8 |      1446    0.8  83.1 |      785    0.6 |
 |  208 |       465    0.6 |      1140    0.6  77.5 |      679    0.5 |
 |  209 |       123    0.2 |       310    0.2  17.4 |      282    0.2 |
 |  210 |       143    0.2 |       348    0.2  28.7 |      298    0.2 |
 |  211 |       517    0.7 |      1184    0.6  78.4 |      708    0.6 |
 |  212 |       456    0.6 |      1058    0.6  76.4 |      647    0.5 |
 |  213 |       148    0.2 |       348    0.2  28.7 |      296    0.2 |
 |  214 |       137    0.2 |       358    0.2  30.2 |      302    0.2 |
 |  215 |       455    0.6 |      1076    0.6  77.3 |      657    0.5 |
 |  216 |       469    0.6 |      1090    0.6  77.4 |      657    0.5 |
 |  217 |       146    0.2 |       360    0.2  31.1 |      302    0.2 |
 |  218 |       137    0.2 |       350    0.2  29.7 |      296    0.2 |
 |  219 |       145    0.2 |       346    0.2  25.4 |      302    0.2 |
 |  220 |       139    0.2 |       338    0.2  26.0 |      294    0.2 |
 |  221 |       143    0.2 |       370    0.2  31.4 |      310    0.3 |
 |  222 |       628    0.8 |      1434    0.8  82.1 |      838    0.7 |
 |  223 |       525    0.7 |      1312    0.7  80.8 |      772    0.6 |
 |  224 |       606    0.8 |      1432    0.8  82.7 |      801    0.6 |
 |  225 |       511    0.6 |      1254    0.7  80.4 |      731    0.6 |
 |  226 |       556    0.7 |      1304    0.7  81.0 |      733    0.6 |
 |  227 |       145    0.2 |       352    0.2  27.3 |      304    0.2 |
 |  228 |       140    0.2 |       340    0.2  27.1 |      294    0.2 |
 |  229 |       141    0.2 |       366    0.2  29.5 |      310    0.3 |
 |  230 |       153    0.2 |       364    0.2  30.8 |      306    0.2 |
 |  231 |       540    0.7 |      1258    0.7  80.7 |      696    0.6 |
 |  232 |       456    0.6 |      1124    0.6  77.6 |      670    0.5 |
 |  233 |       451    0.6 |      1138    0.6  78.6 |      674    0.5 |
 |  234 |       522    0.7 |      1194    0.6  79.5 |      669    0.5 |
 |  235 |       140    0.2 |       364    0.2  29.7 |      308    0.2 |
 |  236 |       150    0.2 |       356    0.2  30.3 |      300    0.2 |
 |  237 |       155    0.2 |       368    0.2  30.4 |      310    0.3 |
 |  238 |       140    0.2 |       368    0.2  30.4 |      310    0.3 |
 |  239 |       306    0.4 |       750    0.4  66.7 |      485    0.4 |
 |  240 |       491    0.6 |      1156    0.6  77.7 |      694    0.6 |
 |  241 |       444    0.6 |      1086    0.6  77.2 |      650    0.5 |
 |  242 |       564    0.7 |      1322    0.7  80.5 |      748    0.6 |
 |  243 |       470    0.6 |      1130    0.6  78.4 |      660    0.5 |
 |  244 |       475    0.6 |      1130    0.6  78.4 |      671    0.5 |
 |  245 |       137    0.2 |       334    0.2  26.3 |      290    0.2 |
 |  246 |       139    0.2 |       336    0.2  26.2 |      292    0.2 |
 |  247 |       140    0.2 |       340    0.2  25.9 |      296    0.2 |
 |  248 |       145    0.2 |       352    0.2  27.3 |      304    0.2 |
 |  249 |       146    0.2 |       356    0.2  28.1 |      306    0.2 |
 |  250 |       143    0.2 |       348    0.2  26.4 |      302    0.2 |
 |  251 |       133    0.2 |       348    0.2  29.9 |      294    0.2 |
 |  252 |       153    0.2 |       368    0.2  32.6 |      306    0.2 |
 |  253 |       505    0.6 |      1196    0.6  78.9 |      687    0.6 |
 |  254 |       491    0.6 |      1202    0.6  78.7 |      714    0.6 |
 |  255 |       427    0.5 |       994    0.5  75.1 |      613    0.5 |
 |  256 |       436    0.6 |      1036    0.6  76.3 |      631    0.5 |
 +------+------------------+------------------------+-----------------+
 | Min  |       105    0.1 |       300    0.2  14.7 |      259    0.2 |
 |(part)|           (  176)|           (  125   125)|          (  176)|
 +------+------------------+------------------------+-----------------+
 | Max  |       650    0.8 |      1474    0.8  83.2 |      838    0.7 |
 |(part)|           (  181)|           (  181   181)|          (  222)|
 +------+------------------+------------------------+-----------------+
 | Ave  |       309    0.4 |       734    0.4  65.8 |      483    0.4 |
 +------+------------------+------------------------+-----------------+
 | Sum  |     79096  100.0 |    187848  100.0  65.8 |   123521  100.0 |
 +------+------------------+------------------------+-----------------+

 +--------------------------------------------------------------------+
 |                 Partitioning CPU-Time Requirements                 |
 +--------------------------------------------------------------------+
  
 - Preparations                                       5.780E-01 seconds
 - Low-level mesh partitioning                        6.410E-01 seconds
 - Gather zone interface information                  4.047E+00 seconds
 - Global partitioning information                    6.200E-02 seconds
 - Element and face partitioning information          7.900E-02 seconds
 - Vertex partitioning information                    2.340E-01 seconds
 - Partitioning information compression               0.000E+00 seconds
 - Summed CPU-time for mesh partitioning              6.438E+00 seconds

 +--------------------------------------------------------------------+
 |                   Job Information at End of Run                    |
 +--------------------------------------------------------------------+

 +---------------------------+------+----------+----------+-----------+
 | Host                      | Mesh |     Job Finished    |    CPU    |
 |                           | Part | DD/MM/YY | hh:mm:ss |  seconds  |
 +---------------------------+------+----------+----------+-----------+
 | RD000D3A21FAED            |    1 | 29/05/15 | 07:24:05 | 1.783E+01 |
 +---------------------------+------+----------+----------+-----------+

 Total wall clock time: 1.654E+01 seconds
             or: (          0:         0:         0:    16.541 )
                 (       Days:     Hours:   Minutes:   Seconds )


 +--------------------------------------------------------------------+
 |                                                                    |
 |                               Solver                               |
 |                                                                    |
 +--------------------------------------------------------------------+




 +--------------------------------------------------------------------+
 |                                                                    |
 |                    ANSYS(R) CFX(R) Solver 15.0.7                   |
 |                                                                    |
 | Version 2014.04.10-23.00-131675     Thu Apr 10 23:23:23 GMTDT 2014 |
 |                                                                    |
 |                        Executable Attributes                       |
 |                                                                    |
 |          single-64bit-int32-supfort-optimised-noprof-lcomp         |
 |                                                                    |
 | (C) 2014 ANSYS, Inc.                                               |
 |                                                                    |
 | All rights reserved. Unauthorized use, distribution or duplication |
 | is prohibited. This product is subject to U.S. laws governing      |
 | export and re-export. For full Legal Notice, see documentation.    |
 +--------------------------------------------------------------------+




 +--------------------------------------------------------------------+
 |                  Job Information at Start of Run                   |
 +--------------------------------------------------------------------+

 Run mode:       parallel run (MS MPI)

 +------------------------------+------+--------+----------+----------+
 | Host                         | Mesh |  PID   |     Job Started     |
 |                              | Part |        | DD/MM/YY | hh:mm:ss |
 +------------------------------+------+--------+----------+----------+
 | RD000D3A21FAED               |    1 |   3228 | 29/05/15 | 07:25:55 |
 |                              |    2 |   2276 | 29/05/15 | 07:25:55 |
 |                              |    3 |   2748 | 29/05/15 | 07:25:55 |
 |                              |    4 |    984 | 29/05/15 | 07:25:55 |
 |                              |    5 |   3828 | 29/05/15 | 07:25:55 |
 |                              |    6 |   3652 | 29/05/15 | 07:25:55 |
 |                              |    7 |   2396 | 29/05/15 | 07:25:55 |
 |                              |    8 |   3744 | 29/05/15 | 07:25:55 |
 +------------------------------+------+--------+----------+----------+
 | RD000D3A21FC45               |    9 |   2152 | 29/05/15 | 07:25:56 |
 |                              |   10 |   1412 | 29/05/15 | 07:25:56 |
 |                              |   11 |   2820 | 29/05/15 | 07:25:56 |
 |                              |   12 |   3968 | 29/05/15 | 07:25:56 |
 |                              |   13 |   1956 | 29/05/15 | 07:25:56 |
 |                              |   14 |   1948 | 29/05/15 | 07:25:56 |
 |                              |   15 |   3652 | 29/05/15 | 07:25:56 |
 |                              |   16 |   2716 | 29/05/15 | 07:25:56 |
 +------------------------------+------+--------+----------+----------+
 | RD000D3A21F47E               |   17 |   1488 | 29/05/15 | 07:25:56 |
 |                              |   18 |   2056 | 29/05/15 | 07:25:56 |
 |                              |   19 |   3564 | 29/05/15 | 07:25:56 |
 |                              |   20 |   1288 | 29/05/15 | 07:25:56 |
 |                              |   21 |   2924 | 29/05/15 | 07:25:56 |
 |                              |   22 |   3556 | 29/05/15 | 07:25:56 |
 |                              |   23 |   2360 | 29/05/15 | 07:25:56 |
 |                              |   24 |   2216 | 29/05/15 | 07:25:56 |
 +------------------------------+------+--------+----------+----------+
 | RD000D3A21FFAC               |   25 |   2036 | 29/05/15 | 07:25:55 |
 |                              |   26 |   3784 | 29/05/15 | 07:25:55 |
 |                              |   27 |   3824 | 29/05/15 | 07:25:55 |
 |                              |   28 |   1956 | 29/05/15 | 07:25:55 |
 |                              |   29 |    932 | 29/05/15 | 07:25:55 |
 |                              |   30 |    920 | 29/05/15 | 07:25:55 |
 |                              |   31 |   3688 | 29/05/15 | 07:25:55 |
 |                              |   32 |   2272 | 29/05/15 | 07:25:55 |
 +------------------------------+------+--------+----------+----------+
 | RD000D3A21F59B               |   33 |   1868 | 29/05/15 | 07:25:56 |
 |                              |   34 |   3960 | 29/05/15 | 07:25:56 |
 |                              |   35 |   3868 | 29/05/15 | 07:25:56 |
 |                              |   36 |   2880 | 29/05/15 | 07:25:56 |
 |                              |   37 |   4012 | 29/05/15 | 07:25:56 |
 |                              |   38 |   2756 | 29/05/15 | 07:25:56 |
 |                              |   39 |   2000 | 29/05/15 | 07:25:56 |
 |                              |   40 |   1524 | 29/05/15 | 07:25:56 |
 +------------------------------+------+--------+----------+----------+
 | RD000D3A21FC8B               |   41 |    120 | 29/05/15 | 07:25:55 |
 |                              |   42 |   3576 | 29/05/15 | 07:25:55 |
 |                              |   43 |   1480 | 29/05/15 | 07:25:55 |
 |                              |   44 |   3960 | 29/05/15 | 07:25:55 |
 |                              |   45 |   1920 | 29/05/15 | 07:25:55 |
 |                              |   46 |   3168 | 29/05/15 | 07:25:55 |
 |                              |   47 |   3384 | 29/05/15 | 07:25:55 |
 |                              |   48 |   3940 | 29/05/15 | 07:25:55 |
 +------------------------------+------+--------+----------+----------+
 | RD000D3A21F495               |   49 |   3432 | 29/05/15 | 07:25:55 |
 |                              |   50 |   3836 | 29/05/15 | 07:25:55 |
 |                              |   51 |   1464 | 29/05/15 | 07:25:55 |
 |                              |   52 |   2852 | 29/05/15 | 07:25:55 |
 |                              |   53 |   2096 | 29/05/15 | 07:25:55 |
 |                              |   54 |   3604 | 29/05/15 | 07:25:55 |
 |                              |   55 |   3976 | 29/05/15 | 07:25:55 |
 |                              |   56 |   3876 | 29/05/15 | 07:25:55 |
 +------------------------------+------+--------+----------+----------+
 | RD000D3A21FCA8               |   57 |   3252 | 29/05/15 | 07:25:56 |
 |                              |   58 |   3764 | 29/05/15 | 07:25:56 |
 |                              |   59 |   3384 | 29/05/15 | 07:25:56 |
 |                              |   60 |   3268 | 29/05/15 | 07:25:56 |
 |                              |   61 |   3728 | 29/05/15 | 07:25:56 |
 |                              |   62 |   2232 | 29/05/15 | 07:25:56 |
 |                              |   63 |   4008 | 29/05/15 | 07:25:56 |
 |                              |   64 |   4080 | 29/05/15 | 07:25:56 |
 +------------------------------+------+--------+----------+----------+
 | RD000D3A21F61B               |   65 |   1004 | 29/05/15 | 07:25:55 |
 |                              |   66 |   3488 | 29/05/15 | 07:25:55 |
 |                              |   67 |   3500 | 29/05/15 | 07:25:55 |
 |                              |   68 |   3468 | 29/05/15 | 07:25:55 |
 |                              |   69 |   2840 | 29/05/15 | 07:25:55 |
 |                              |   70 |   1084 | 29/05/15 | 07:25:55 |
 |                              |   71 |   2240 | 29/05/15 | 07:25:55 |
 |                              |   72 |   2700 | 29/05/15 | 07:25:55 |
 +------------------------------+------+--------+----------+----------+
 | RD000D3A21FEED               |   73 |   2360 | 29/05/15 | 07:25:55 |
 |                              |   74 |   4068 | 29/05/15 | 07:25:55 |
 |                              |   75 |   2304 | 29/05/15 | 07:25:55 |
 |                              |   76 |   2868 | 29/05/15 | 07:25:55 |
 |                              |   77 |   1684 | 29/05/15 | 07:25:55 |
 |                              |   78 |   3536 | 29/05/15 | 07:25:55 |
 |                              |   79 |   2572 | 29/05/15 | 07:25:55 |
 |                              |   80 |   2608 | 29/05/15 | 07:25:55 |
 +------------------------------+------+--------+----------+----------+
 | RD000D3A21FFEC               |   81 |   3524 | 29/05/15 | 07:25:55 |
 |                              |   82 |   1712 | 29/05/15 | 07:25:55 |
 |                              |   83 |   3716 | 29/05/15 | 07:25:55 |
 |                              |   84 |   3664 | 29/05/15 | 07:25:55 |
 |                              |   85 |   3792 | 29/05/15 | 07:25:55 |
 |                              |   86 |   3220 | 29/05/15 | 07:25:55 |
 |                              |   87 |   2332 | 29/05/15 | 07:25:55 |
 |                              |   88 |   3728 | 29/05/15 | 07:25:55 |
 +------------------------------+------+--------+----------+----------+
 | RD000D3A21FC0F               |   89 |   3724 | 29/05/15 | 07:25:55 |
 |                              |   90 |   2384 | 29/05/15 | 07:25:55 |
 |                              |   91 |   2628 | 29/05/15 | 07:25:55 |
 |                              |   92 |   2436 | 29/05/15 | 07:25:55 |
 |                              |   93 |   1484 | 29/05/15 | 07:25:55 |
 |                              |   94 |   1988 | 29/05/15 | 07:25:55 |
 |                              |   95 |    940 | 29/05/15 | 07:25:55 |
 |                              |   96 |   2432 | 29/05/15 | 07:25:55 |
 +------------------------------+------+--------+----------+----------+
 | RD000D3A21FD23               |   97 |   3292 | 29/05/15 | 07:25:55 |
 |                              |   98 |   3104 | 29/05/15 | 07:25:55 |
 |                              |   99 |   2780 | 29/05/15 | 07:25:55 |
 |                              |  100 |   3380 | 29/05/15 | 07:25:55 |
 |                              |  101 |   4044 | 29/05/15 | 07:25:55 |
 |                              |  102 |   2708 | 29/05/15 | 07:25:55 |
 |                              |  103 |   3880 | 29/05/15 | 07:25:55 |
 |                              |  104 |   3172 | 29/05/15 | 07:25:55 |
 +------------------------------+------+--------+----------+----------+
 | RD000D3A21FC1E               |  105 |    800 | 29/05/15 | 07:25:56 |
 |                              |  106 |   2176 | 29/05/15 | 07:25:56 |
 |                              |  107 |   2712 | 29/05/15 | 07:25:56 |
 |                              |  108 |   4064 | 29/05/15 | 07:25:56 |
 |                              |  109 |   4012 | 29/05/15 | 07:25:56 |
 |                              |  110 |   2196 | 29/05/15 | 07:25:56 |
 |                              |  111 |   1096 | 29/05/15 | 07:25:56 |
 |                              |  112 |   2988 | 29/05/15 | 07:25:56 |
 +------------------------------+------+--------+----------+----------+
 | RD000D3A21F2FE               |  113 |    724 | 29/05/15 | 07:25:55 |
 |                              |  114 |   3076 | 29/05/15 | 07:25:55 |
 |                              |  115 |   3188 | 29/05/15 | 07:25:55 |
 |                              |  116 |   3908 | 29/05/15 | 07:25:55 |
 |                              |  117 |   3892 | 29/05/15 | 07:25:55 |
 |                              |  118 |   4028 | 29/05/15 | 07:25:55 |
 |                              |  119 |   1276 | 29/05/15 | 07:25:55 |
 |                              |  120 |   3820 | 29/05/15 | 07:25:55 |
 +------------------------------+------+--------+----------+----------+
 | RD000D3A21FA6D               |  121 |   4092 | 29/05/15 | 07:25:55 |
 |                              |  122 |   4060 | 29/05/15 | 07:25:55 |
 |                              |  123 |   3284 | 29/05/15 | 07:25:55 |
 |                              |  124 |   3520 | 29/05/15 | 07:25:55 |
 |                              |  125 |   1836 | 29/05/15 | 07:25:55 |
 |                              |  126 |   3600 | 29/05/15 | 07:25:55 |
 |                              |  127 |   3604 | 29/05/15 | 07:25:55 |
 |                              |  128 |   3292 | 29/05/15 | 07:25:55 |
 +------------------------------+------+--------+----------+----------+
 | RD000D3A21FA6F               |  129 |   2252 | 29/05/15 | 07:25:55 |
 |                              |  130 |   1212 | 29/05/15 | 07:25:55 |
 |                              |  131 |   1248 | 29/05/15 | 07:25:55 |
 |                              |  132 |   2108 | 29/05/15 | 07:25:55 |
 |                              |  133 |   2944 | 29/05/15 | 07:25:55 |
 |                              |  134 |   2892 | 29/05/15 | 07:25:55 |
 |                              |  135 |   4092 | 29/05/15 | 07:25:55 |
 |                              |  136 |   2896 | 29/05/15 | 07:25:55 |
 +------------------------------+------+--------+----------+----------+
 | RD000D3A21FDA9               |  137 |   1368 | 29/05/15 | 07:25:56 |
 |                              |  138 |   2248 | 29/05/15 | 07:25:56 |
 |                              |  139 |   1288 | 29/05/15 | 07:25:56 |
[...]
 |                           |   20 | 29/05/15 | 07:30:51 | 3.154E+02 |
 |                           |   21 | 29/05/15 | 07:30:51 | 3.154E+02 |
 |                           |   22 | 29/05/15 | 07:30:51 | 3.154E+02 |
 |                           |   23 | 29/05/15 | 07:30:51 | 3.154E+02 |
 |                           |   24 | 29/05/15 | 07:30:51 | 3.154E+02 |
 +---------------------------+------+----------+----------+-----------+
 | RD000D3A21FFAC            |   25 | 29/05/15 | 07:30:51 | 3.052E+02 |
 |                           |   26 | 29/05/15 | 07:30:51 | 3.052E+02 |
 |                           |   27 | 29/05/15 | 07:30:51 | 3.052E+02 |
 |                           |   28 | 29/05/15 | 07:30:51 | 3.052E+02 |
 |                           |   29 | 29/05/15 | 07:30:51 | 3.052E+02 |
 |                           |   30 | 29/05/15 | 07:30:51 | 3.052E+02 |
 |                           |   31 | 29/05/15 | 07:30:51 | 3.052E+02 |
 |                           |   32 | 29/05/15 | 07:30:51 | 3.052E+02 |
 +---------------------------+------+----------+----------+-----------+
 | RD000D3A21F59B            |   33 | 29/05/15 | 07:30:51 | 3.257E+02 |
 |                           |   34 | 29/05/15 | 07:30:51 | 3.257E+02 |
 |                           |   35 | 29/05/15 | 07:30:51 | 3.257E+02 |
 |                           |   36 | 29/05/15 | 07:30:51 | 3.257E+02 |
 |                           |   37 | 29/05/15 | 07:30:51 | 3.257E+02 |
 |                           |   38 | 29/05/15 | 07:30:51 | 3.257E+02 |
 |                           |   39 | 29/05/15 | 07:30:51 | 3.257E+02 |
 |                           |   40 | 29/05/15 | 07:30:51 | 3.257E+02 |
 +---------------------------+------+----------+----------+-----------+
 | RD000D3A21FC8B            |   41 | 29/05/15 | 07:30:51 | 2.999E+02 |
 |                           |   42 | 29/05/15 | 07:30:51 | 2.999E+02 |
 |                           |   43 | 29/05/15 | 07:30:51 | 2.999E+02 |
 |                           |   44 | 29/05/15 | 07:30:51 | 2.999E+02 |
 |                           |   45 | 29/05/15 | 07:30:51 | 2.999E+02 |
 |                           |   46 | 29/05/15 | 07:30:51 | 2.999E+02 |
 |                           |   47 | 29/05/15 | 07:30:51 | 2.999E+02 |
 |                           |   48 | 29/05/15 | 07:30:51 | 2.999E+02 |
 +---------------------------+------+----------+----------+-----------+
 | RD000D3A21F495            |   49 | 29/05/15 | 07:30:51 | 3.035E+02 |
 |                           |   50 | 29/05/15 | 07:30:51 | 3.035E+02 |
 |                           |   51 | 29/05/15 | 07:30:51 | 3.035E+02 |
 |                           |   52 | 29/05/15 | 07:30:51 | 3.035E+02 |
 |                           |   53 | 29/05/15 | 07:30:51 | 3.035E+02 |
 |                           |   54 | 29/05/15 | 07:30:51 | 3.035E+02 |
 |                           |   55 | 29/05/15 | 07:30:51 | 3.035E+02 |
 |                           |   56 | 29/05/15 | 07:30:51 | 3.035E+02 |
 +---------------------------+------+----------+----------+-----------+
 | RD000D3A21FCA8            |   57 | 29/05/15 | 07:30:52 | 2.978E+02 |
 |                           |   58 | 29/05/15 | 07:30:52 | 2.978E+02 |
 |                           |   59 | 29/05/15 | 07:30:52 | 2.978E+02 |
 |                           |   60 | 29/05/15 | 07:30:52 | 2.978E+02 |
 |                           |   61 | 29/05/15 | 07:30:52 | 2.978E+02 |
 |                           |   62 | 29/05/15 | 07:30:52 | 2.978E+02 |
 |                           |   63 | 29/05/15 | 07:30:52 | 2.978E+02 |
 |                           |   64 | 29/05/15 | 07:30:52 | 2.978E+02 |
 +---------------------------+------+----------+----------+-----------+
 | RD000D3A21F61B            |   65 | 29/05/15 | 07:30:51 | 2.978E+02 |
 |                           |   66 | 29/05/15 | 07:30:51 | 2.978E+02 |
 |                           |   67 | 29/05/15 | 07:30:51 | 2.978E+02 |
 |                           |   68 | 29/05/15 | 07:30:51 | 2.978E+02 |
 |                           |   69 | 29/05/15 | 07:30:51 | 2.978E+02 |
 |                           |   70 | 29/05/15 | 07:30:51 | 2.978E+02 |
 |                           |   71 | 29/05/15 | 07:30:51 | 2.978E+02 |
 |                           |   72 | 29/05/15 | 07:30:51 | 2.978E+02 |
 +---------------------------+------+----------+----------+-----------+
 | RD000D3A21FEED            |   73 | 29/05/15 | 07:30:50 | 2.999E+02 |
 |                           |   74 | 29/05/15 | 07:30:50 | 2.999E+02 |
 |                           |   75 | 29/05/15 | 07:30:50 | 2.999E+02 |
 |                           |   76 | 29/05/15 | 07:30:50 | 2.999E+02 |
 |                           |   77 | 29/05/15 | 07:30:50 | 2.999E+02 |
 |                           |   78 | 29/05/15 | 07:30:50 | 2.999E+02 |
 |                           |   79 | 29/05/15 | 07:30:50 | 2.999E+02 |
 |                           |   80 | 29/05/15 | 07:30:50 | 2.999E+02 |
 +---------------------------+------+----------+----------+-----------+
 | RD000D3A21FFEC            |   81 | 29/05/15 | 07:30:50 | 3.186E+02 |
 |                           |   82 | 29/05/15 | 07:30:50 | 3.186E+02 |
 |                           |   83 | 29/05/15 | 07:30:50 | 3.186E+02 |
 |                           |   84 | 29/05/15 | 07:30:50 | 3.186E+02 |
 |                           |   85 | 29/05/15 | 07:30:50 | 3.186E+02 |
 |                           |   86 | 29/05/15 | 07:30:50 | 3.186E+02 |
 |                           |   87 | 29/05/15 | 07:30:50 | 3.186E+02 |
 |                           |   88 | 29/05/15 | 07:30:50 | 3.186E+02 |
 +---------------------------+------+----------+----------+-----------+
 | RD000D3A21FC0F            |   89 | 29/05/15 | 07:30:51 | 3.035E+02 |
 |                           |   90 | 29/05/15 | 07:30:51 | 3.035E+02 |
 |                           |   91 | 29/05/15 | 07:30:51 | 3.035E+02 |
 |                           |   92 | 29/05/15 | 07:30:51 | 3.035E+02 |
 |                           |   93 | 29/05/15 | 07:30:51 | 3.035E+02 |
 |                           |   94 | 29/05/15 | 07:30:51 | 3.035E+02 |
 |                           |   95 | 29/05/15 | 07:30:51 | 3.035E+02 |
 |                           |   96 | 29/05/15 | 07:30:51 | 3.035E+02 |
 +---------------------------+------+----------+----------+-----------+
 | RD000D3A21FD23            |   97 | 29/05/15 | 07:30:51 | 3.173E+02 |
 |                           |   98 | 29/05/15 | 07:30:51 | 3.173E+02 |
 |                           |   99 | 29/05/15 | 07:30:51 | 3.173E+02 |
 |                           |  100 | 29/05/15 | 07:30:51 | 3.173E+02 |
 |                           |  101 | 29/05/15 | 07:30:51 | 3.173E+02 |
 |                           |  102 | 29/05/15 | 07:30:51 | 3.173E+02 |
 |                           |  103 | 29/05/15 | 07:30:51 | 3.173E+02 |
 |                           |  104 | 29/05/15 | 07:30:51 | 3.173E+02 |
 +---------------------------+------+----------+----------+-----------+
 | RD000D3A21FC1E            |  105 | 29/05/15 | 07:30:51 | 3.189E+02 |
 |                           |  106 | 29/05/15 | 07:30:51 | 3.189E+02 |
 |                           |  107 | 29/05/15 | 07:30:51 | 3.189E+02 |
 |                           |  108 | 29/05/15 | 07:30:51 | 3.189E+02 |
 |                           |  109 | 29/05/15 | 07:30:51 | 3.189E+02 |
 |                           |  110 | 29/05/15 | 07:30:51 | 3.189E+02 |
 |                           |  111 | 29/05/15 | 07:30:51 | 3.189E+02 |
 |                           |  112 | 29/05/15 | 07:30:51 | 3.189E+02 |
 +---------------------------+------+----------+----------+-----------+
 | RD000D3A21F2FE            |  113 | 29/05/15 | 07:30:51 | 3.255E+02 |
 |                           |  114 | 29/05/15 | 07:30:51 | 3.255E+02 |
 |                           |  115 | 29/05/15 | 07:30:51 | 3.255E+02 |
 |                           |  116 | 29/05/15 | 07:30:51 | 3.255E+02 |
 |                           |  117 | 29/05/15 | 07:30:51 | 3.255E+02 |
 |                           |  118 | 29/05/15 | 07:30:51 | 3.255E+02 |
 |                           |  119 | 29/05/15 | 07:30:51 | 3.255E+02 |
 |                           |  120 | 29/05/15 | 07:30:51 | 3.255E+02 |
 +---------------------------+------+----------+----------+-----------+
 | RD000D3A21FA6D            |  121 | 29/05/15 | 07:30:51 | 3.001E+02 |
 |                           |  122 | 29/05/15 | 07:30:51 | 3.001E+02 |
 |                           |  123 | 29/05/15 | 07:30:51 | 3.001E+02 |
 |                           |  124 | 29/05/15 | 07:30:51 | 3.001E+02 |
 |                           |  125 | 29/05/15 | 07:30:51 | 3.001E+02 |
 |                           |  126 | 29/05/15 | 07:30:51 | 3.001E+02 |
 |                           |  127 | 29/05/15 | 07:30:51 | 3.001E+02 |
 |                           |  128 | 29/05/15 | 07:30:51 | 3.001E+02 |
 +---------------------------+------+----------+----------+-----------+
 | RD000D3A21FA6F            |  129 | 29/05/15 | 07:30:51 | 3.001E+02 |
 |                           |  130 | 29/05/15 | 07:30:51 | 3.001E+02 |
 |                           |  131 | 29/05/15 | 07:30:51 | 3.001E+02 |
 |                           |  132 | 29/05/15 | 07:30:51 | 3.001E+02 |
 |                           |  133 | 29/05/15 | 07:30:51 | 3.001E+02 |
 |                           |  134 | 29/05/15 | 07:30:51 | 3.001E+02 |
 |                           |  135 | 29/05/15 | 07:30:51 | 3.001E+02 |
 |                           |  136 | 29/05/15 | 07:30:51 | 3.001E+02 |
 +---------------------------+------+----------+----------+-----------+
 | RD000D3A21FDA9            |  137 | 29/05/15 | 07:30:51 | 3.180E+02 |
 |                           |  138 | 29/05/15 | 07:30:51 | 3.180E+02 |
 |                           |  139 | 29/05/15 | 07:30:51 | 3.180E+02 |
 |                           |  140 | 29/05/15 | 07:30:51 | 3.180E+02 |
 |                           |  141 | 29/05/15 | 07:30:51 | 3.180E+02 |
 |                           |  142 | 29/05/15 | 07:30:51 | 3.180E+02 |
 |                           |  143 | 29/05/15 | 07:30:51 | 3.180E+02 |
 |                           |  144 | 29/05/15 | 07:30:51 | 3.180E+02 |
 +---------------------------+------+----------+----------+-----------+
 | RD000D3A21F990            |  145 | 29/05/15 | 07:30:50 | 3.052E+02 |
 |                           |  146 | 29/05/15 | 07:30:50 | 3.052E+02 |
 |                           |  147 | 29/05/15 | 07:30:50 | 3.052E+02 |
 |                           |  148 | 29/05/15 | 07:30:50 | 3.052E+02 |
 |                           |  149 | 29/05/15 | 07:30:50 | 3.052E+02 |
 |                           |  150 | 29/05/15 | 07:30:50 | 3.052E+02 |
 |                           |  151 | 29/05/15 | 07:30:50 | 3.052E+02 |
 |                           |  152 | 29/05/15 | 07:30:50 | 3.052E+02 |
 +---------------------------+------+----------+----------+-----------+
 | RD000D3A21FFEA            |  153 | 29/05/15 | 07:30:51 | 3.035E+02 |
 |                           |  154 | 29/05/15 | 07:30:51 | 3.035E+02 |
 |                           |  155 | 29/05/15 | 07:30:51 | 3.035E+02 |
 |                           |  156 | 29/05/15 | 07:30:51 | 3.035E+02 |
 |                           |  157 | 29/05/15 | 07:30:51 | 3.035E+02 |
 |                           |  158 | 29/05/15 | 07:30:51 | 3.035E+02 |
 |                           |  159 | 29/05/15 | 07:30:51 | 3.035E+02 |
 |                           |  160 | 29/05/15 | 07:30:51 | 3.035E+02 |
 +---------------------------+------+----------+----------+-----------+
 | RD000D3A21F436            |  161 | 29/05/15 | 07:30:51 | 3.000E+02 |
 |                           |  162 | 29/05/15 | 07:30:51 | 3.000E+02 |
 |                           |  163 | 29/05/15 | 07:30:51 | 3.000E+02 |
 |                           |  164 | 29/05/15 | 07:30:51 | 3.000E+02 |
 |                           |  165 | 29/05/15 | 07:30:51 | 3.000E+02 |
 |                           |  166 | 29/05/15 | 07:30:51 | 3.000E+02 |
 |                           |  167 | 29/05/15 | 07:30:51 | 3.000E+02 |
 |                           |  168 | 29/05/15 | 07:30:51 | 3.000E+02 |
 +---------------------------+------+----------+----------+-----------+
 | RD000D3A21FC15            |  169 | 29/05/15 | 07:30:51 | 3.414E+02 |
 |                           |  170 | 29/05/15 | 07:30:51 | 3.414E+02 |
 |                           |  171 | 29/05/15 | 07:30:51 | 3.414E+02 |
 |                           |  172 | 29/05/15 | 07:30:51 | 3.414E+02 |
 |                           |  173 | 29/05/15 | 07:30:51 | 3.414E+02 |
 |                           |  174 | 29/05/15 | 07:30:51 | 3.414E+02 |
 |                           |  175 | 29/05/15 | 07:30:51 | 3.414E+02 |
 |                           |  176 | 29/05/15 | 07:30:51 | 3.414E+02 |
 +---------------------------+------+----------+----------+-----------+
 | RD000D3A21FB9A            |  177 | 29/05/15 | 07:30:51 | 3.010E+02 |
 |                           |  178 | 29/05/15 | 07:30:51 | 3.010E+02 |
 |                           |  179 | 29/05/15 | 07:30:51 | 3.010E+02 |
 |                           |  180 | 29/05/15 | 07:30:51 | 3.010E+02 |
 |                           |  181 | 29/05/15 | 07:30:51 | 3.010E+02 |
 |                           |  182 | 29/05/15 | 07:30:51 | 3.010E+02 |
 |                           |  183 | 29/05/15 | 07:30:51 | 3.010E+02 |
 |                           |  184 | 29/05/15 | 07:30:51 | 3.010E+02 |
 +---------------------------+------+----------+----------+-----------+
 | RD000D3A21F854            |  185 | 29/05/15 | 07:30:50 | 2.997E+02 |
 |                           |  186 | 29/05/15 | 07:30:50 | 2.997E+02 |
 |                           |  187 | 29/05/15 | 07:30:50 | 2.997E+02 |
 |                           |  188 | 29/05/15 | 07:30:50 | 2.997E+02 |
 |                           |  189 | 29/05/15 | 07:30:50 | 2.997E+02 |
 |                           |  190 | 29/05/15 | 07:30:50 | 2.997E+02 |
 |                           |  191 | 29/05/15 | 07:30:50 | 2.997E+02 |
 |                           |  192 | 29/05/15 | 07:30:50 | 2.997E+02 |
 +---------------------------+------+----------+----------+-----------+
 | RD000D3A21F25F            |  193 | 29/05/15 | 07:30:51 | 3.595E+02 |
 |                           |  194 | 29/05/15 | 07:30:51 | 3.595E+02 |
 |                           |  195 | 29/05/15 | 07:30:51 | 3.595E+02 |
 |                           |  196 | 29/05/15 | 07:30:51 | 3.595E+02 |
 |                           |  197 | 29/05/15 | 07:30:51 | 3.595E+02 |
 |                           |  198 | 29/05/15 | 07:30:51 | 3.595E+02 |
 |                           |  199 | 29/05/15 | 07:30:51 | 3.595E+02 |
 |                           |  200 | 29/05/15 | 07:30:51 | 3.595E+02 |
 +---------------------------+------+----------+----------+-----------+
 | RD000D3A21F7A7            |  201 | 29/05/15 | 07:30:51 | 3.186E+02 |
 |                           |  202 | 29/05/15 | 07:30:51 | 3.186E+02 |
 |                           |  203 | 29/05/15 | 07:30:51 | 3.186E+02 |
 |                           |  204 | 29/05/15 | 07:30:51 | 3.186E+02 |
 |                           |  205 | 29/05/15 | 07:30:51 | 3.186E+02 |
 |                           |  206 | 29/05/15 | 07:30:51 | 3.186E+02 |
 |                           |  207 | 29/05/15 | 07:30:51 | 3.186E+02 |
 |                           |  208 | 29/05/15 | 07:30:51 | 3.186E+02 |
 +---------------------------+------+----------+----------+-----------+
 | RD000D3A21FA60            |  209 | 29/05/15 | 07:30:51 | 3.190E+02 |
 |                           |  210 | 29/05/15 | 07:30:51 | 3.190E+02 |
 |                           |  211 | 29/05/15 | 07:30:51 | 3.190E+02 |
 |                           |  212 | 29/05/15 | 07:30:51 | 3.190E+02 |
 |                           |  213 | 29/05/15 | 07:30:51 | 3.190E+02 |
 |                           |  214 | 29/05/15 | 07:30:51 | 3.190E+02 |
 |                           |  215 | 29/05/15 | 07:30:51 | 3.190E+02 |
 |                           |  216 | 29/05/15 | 07:30:51 | 3.190E+02 |
 +---------------------------+------+----------+----------+-----------+
 | RD000D3A21FEFD            |  217 | 29/05/15 | 07:30:51 | 3.002E+02 |
 |                           |  218 | 29/05/15 | 07:30:51 | 3.002E+02 |
 |                           |  219 | 29/05/15 | 07:30:51 | 3.002E+02 |
 |                           |  220 | 29/05/15 | 07:30:51 | 3.002E+02 |
 |                           |  221 | 29/05/15 | 07:30:51 | 3.002E+02 |
 |                           |  222 | 29/05/15 | 07:30:51 | 3.002E+02 |
 |                           |  223 | 29/05/15 | 07:30:51 | 3.002E+02 |
 |                           |  224 | 29/05/15 | 07:30:51 | 3.002E+02 |
 +---------------------------+------+----------+----------+-----------+
 | RD000D3A21FC08            |  225 | 29/05/15 | 07:30:51 | 3.064E+02 |
 |                           |  226 | 29/05/15 | 07:30:51 | 3.064E+02 |
 |                           |  227 | 29/05/15 | 07:30:51 | 3.064E+02 |
 |                           |  228 | 29/05/15 | 07:30:51 | 3.064E+02 |
 |                           |  229 | 29/05/15 | 07:30:51 | 3.064E+02 |
 |                           |  230 | 29/05/15 | 07:30:51 | 3.064E+02 |
 |                           |  231 | 29/05/15 | 07:30:51 | 3.064E+02 |
 |                           |  232 | 29/05/15 | 07:30:51 | 3.064E+02 |
 +---------------------------+------+----------+----------+-----------+
 | RD000D3A21F275            |  233 | 29/05/15 | 07:30:51 | 2.978E+02 |
 |                           |  234 | 29/05/15 | 07:30:51 | 2.978E+02 |
 |                           |  235 | 29/05/15 | 07:30:51 | 2.978E+02 |
 |                           |  236 | 29/05/15 | 07:30:51 | 2.978E+02 |
 |                           |  237 | 29/05/15 | 07:30:51 | 2.978E+02 |
 |                           |  238 | 29/05/15 | 07:30:51 | 2.978E+02 |
 |                           |  239 | 29/05/15 | 07:30:51 | 2.978E+02 |
 |                           |  240 | 29/05/15 | 07:30:51 | 2.978E+02 |
 +---------------------------+------+----------+----------+-----------+
 | RD000D3A21F95A            |  241 | 29/05/15 | 07:30:51 | 2.991E+02 |
 |                           |  242 | 29/05/15 | 07:30:51 | 2.991E+02 |
 |                           |  243 | 29/05/15 | 07:30:51 | 2.991E+02 |
 |                           |  244 | 29/05/15 | 07:30:51 | 2.991E+02 |
 |                           |  245 | 29/05/15 | 07:30:51 | 2.991E+02 |
 |                           |  246 | 29/05/15 | 07:30:51 | 2.991E+02 |
 |                           |  247 | 29/05/15 | 07:30:51 | 2.991E+02 |
 |                           |  248 | 29/05/15 | 07:30:51 | 2.991E+02 |
 +---------------------------+------+----------+----------+-----------+
 | RD000D3A21F4A5            |  249 | 29/05/15 | 07:30:51 | 3.038E+02 |
 |                           |  250 | 29/05/15 | 07:30:51 | 3.038E+02 |
 |                           |  251 | 29/05/15 | 07:30:51 | 3.038E+02 |
 |                           |  252 | 29/05/15 | 07:30:51 | 3.038E+02 |
 |                           |  253 | 29/05/15 | 07:30:51 | 3.038E+02 |
 |                           |  254 | 29/05/15 | 07:30:51 | 3.038E+02 |
 |                           |  255 | 29/05/15 | 07:30:51 | 3.038E+02 |
 |                           |  256 | 29/05/15 | 07:30:51 | 3.038E+02 |
 +---------------------------+------+----------+----------+-----------+

 Total wall clock time: 2.967E+02 seconds
             or: (          0:         0:         4:    56.717 )
                 (       Days:     Hours:   Minutes:   Seconds )



 --> Final synchronization point reached by all partitions.
End of solution stage.

 +--------------------------------------------------------------------+
 | The results from this run of the ANSYS CFX Solver have been        |
 | written to                                                         |
 | \\10.10.13.6\C\Resources\directory\3301acebc8f4463d990a819988261b- |
 | b5.HSR.AzureEE.HpcWorkerRole.jobdata\job-4\pipe02_001.res          |
 +--------------------------------------------------------------------+


This run of the ANSYS CFX Solver has finished.
