 This run of the CFX-15.0.7 Solver started at 20:35:01 on 26 May 2015 by
 user MpiUser on RD000D3A21E6D9 (intel_xeon64.sse2_winnt) using the
 command:
 
  "\\hsransys.file.core.windows.net\main\apps\ANSYS Inc\v150\CFX\bin\perllib\cfx5solve.pl"
    -def pipe01.def -chdir
    \\10.10.13.6\C\Resources\directory\1f74c960e9304402adcb98b803ab572f.HSR.AzureEE.HpcWorkerRole.jobdata\job-5
    -start-method MSMPI2 -part 256
 
 Point Releases and Patches installed:
 
  ANSYS, Inc. Products 15.0.7
  ANSYS Mechanical Products 15.0.7
  ANSYS Autodyn 15.0.7
  ANSYS LS-DYNA 15.0.7
  ANSYS CFX (includes ANSYS CFD-Post) 15.0.7
  ANSYS Fluent (includes ANSYS CFD-Post) 15.0.7
  ANSYS TurboGrid 15.0.7
  ANSYS Polyflow (includes ANSYS CFD-Post) 15.0.7
  ANSYS Aqwa 15.0.7
  ANSYS ICEM CFD 15.0.7
  ANSYS Icepak (includes ANSYS CFD-Post) 15.0.7
  Catia, Version 6 15.0.7
  ANSYS, Inc. License Manager 15.0.7
 
 Setting up CFX Solver run ...
 

 +--------------------------------------------------------------------+
 |                              Warning!                              |
 |                                                                    |
 | The working directory is a UNC path, but the Windows command shell |
 | is currently not configured to support UNC paths. This may cause   |
 | failure of the CFX Solver.                                         |
 |                                                                    |
 | Command shell support for UNC paths can be enabled by setting the  |
 | Windows registry key DisableUNCCheck.                              |
 +--------------------------------------------------------------------+


 +--------------------------------------------------------------------+
 |                                                                    |
 |                    CFX Command Language Upgrade                    |
 |                                                                    |
 +--------------------------------------------------------------------+

 Added /SIMULATION CONTROL/EXECUTION CONTROL/EXECUTABLE SELECTION/Double
 Precision = Off.
 

 +--------------------------------------------------------------------+
 |                                                                    |
 |                    CFX Command Language for Run                    |
 |                                                                    |
 +--------------------------------------------------------------------+

 LIBRARY:
   MATERIAL: Air at 25 C
     Material Description = Air at 25 C and 1 atm (dry)
     Material Group = Air Data, Constant Property Gases
     Option = Pure Substance
     Thermodynamic State = Gas
     PROPERTIES:
       Option = General Material
       EQUATION OF STATE:
         Density = 1.185 [kg m^-3]
         Molar Mass = 28.96 [kg kmol^-1]
         Option = Value
       END
       SPECIFIC HEAT CAPACITY:
         Option = Value
         Specific Heat Capacity = 1.0044E+03 [J kg^-1 K^-1]
         Specific Heat Type = Constant Pressure
       END
       REFERENCE STATE:
         Option = Specified Point
         Reference Pressure = 1 [atm]
         Reference Specific Enthalpy = 0. [J/kg]
         Reference Specific Entropy = 0. [J/kg/K]
         Reference Temperature = 25 [C]
       END
       DYNAMIC VISCOSITY:
         Dynamic Viscosity = 1.831E-05 [kg m^-1 s^-1]
         Option = Value
       END
       THERMAL CONDUCTIVITY:
         Option = Value
         Thermal Conductivity = 2.61E-02 [W m^-1 K^-1]
       END
       ABSORPTION COEFFICIENT:
         Absorption Coefficient = 0.01 [m^-1]
         Option = Value
       END
       SCATTERING COEFFICIENT:
         Option = Value
         Scattering Coefficient = 0.0 [m^-1]
       END
       REFRACTIVE INDEX:
         Option = Value
         Refractive Index = 1.0 [m m^-1]
       END
       THERMAL EXPANSIVITY:
         Option = Value
         Thermal Expansivity = 0.003356 [K^-1]
       END
     END
   END
 END
 FLOW: Flow Analysis 1
   SOLUTION UNITS:
     Angle Units = [rad]
     Length Units = [m]
     Mass Units = [kg]
     Solid Angle Units = [sr]
     Temperature Units = [K]
     Time Units = [s]
   END
   ANALYSIS TYPE:
     Option = Steady State
     EXTERNAL SOLVER COUPLING:
       Option = None
     END
   END
   DOMAIN: Default Domain
     Coord Frame = Coord 0
     Domain Type = Fluid
     Location = B16
     BOUNDARY: Default Domain Default
       Boundary Type = WALL
       Location = F17.16,F18.16,F19.16
       BOUNDARY CONDITIONS:
         MASS AND MOMENTUM:
           Option = No Slip Wall
         END
         WALL ROUGHNESS:
           Option = Smooth Wall
         END
       END
     END
     BOUNDARY: Inlet
       Boundary Type = INLET
       Location = Inlet
       BOUNDARY CONDITIONS:
         FLOW REGIME:
           Option = Subsonic
         END
         MASS AND MOMENTUM:
           Normal Speed = 0.01 [m s^-1]
           Option = Normal Speed
         END
         TURBULENCE:
           Option = Medium Intensity and Eddy Viscosity Ratio
         END
       END
     END
     BOUNDARY: Outlet
       Boundary Type = OUTLET
       Location = Outlet
       BOUNDARY CONDITIONS:
         FLOW REGIME:
           Option = Subsonic
         END
         MASS AND MOMENTUM:
           Option = Average Static Pressure
           Pressure Profile Blend = 0.05
           Relative Pressure = 0 [Pa]
         END
         PRESSURE AVERAGING:
           Option = Average Over Whole Outlet
         END
       END
     END
     BOUNDARY: Symmetry
       Boundary Type = SYMMETRY
       Location = Symmetry
     END
     DOMAIN MODELS:
       BUOYANCY MODEL:
         Option = Non Buoyant
       END
       DOMAIN MOTION:
         Option = Stationary
       END
       MESH DEFORMATION:
         Option = None
       END
       REFERENCE PRESSURE:
         Reference Pressure = 1 [atm]
       END
     END
     FLUID DEFINITION: Fluid 1
       Material = Air at 25 C
       Option = Material Library
       MORPHOLOGY:
         Option = Continuous Fluid
       END
     END
     FLUID MODELS:
       COMBUSTION MODEL:
         Option = None
       END
       HEAT TRANSFER MODEL:
         Fluid Temperature = 25 [C]
         Option = Isothermal
       END
       THERMAL RADIATION MODEL:
         Option = None
       END
       TURBULENCE MODEL:
         Option = k epsilon
       END
       TURBULENT WALL FUNCTIONS:
         Option = Scalable
       END
     END
   END
   OUTPUT CONTROL:
     RESULTS:
       File Compression Level = Default
       Option = Standard
     END
   END
   SOLVER CONTROL:
     Turbulence Numerics = First Order
     ADVECTION SCHEME:
       Option = High Resolution
     END
     CONVERGENCE CONTROL:
       Length Scale Option = Conservative
       Maximum Number of Iterations = 100
       Minimum Number of Iterations = 1
       Timescale Control = Auto Timescale
       Timescale Factor = 1.0
     END
     CONVERGENCE CRITERIA:
       Residual Target = 1.E-4
       Residual Type = RMS
     END
     DYNAMIC MODEL CONTROL:
       Global Dynamic Model Control = On
     END
   END
 END
 COMMAND FILE:
   Version = 15.0
   Results Version = 15.0.7
 END
 SIMULATION CONTROL:
   EXECUTION CONTROL:
     EXECUTABLE SELECTION:
       Double Precision = Off
     END
     PARALLEL HOST LIBRARY:
       HOST DEFINITION: rd000d3a21e6d9
         Host Architecture String = winnt-amd64
         Installation Root = \\hsransys.file.core.windows.net\main\apps\ANSYS \
           Inc\v%v\CFX
       END
     END
     PARTITIONER STEP CONTROL:
       PARTITIONING TYPE:
         Option = MeTiS
         MeTiS Type = k-way
         Partition Size Rule = Automatic
         Partition Weight Factors = 0.00391, 0.00391, 0.00391, 0.00391, \
           0.00391, 0.00391, 0.00391, 0.00391, 0.00391, 0.00391, 0.00391, \
           0.00391, 0.00391, 0.00391, 0.00391, 0.00391, 0.00391, 0.00391, \
           0.00391, 0.00391, 0.00391, 0.00391, 0.00391, 0.00391, 0.00391, \
           0.00391, 0.00391, 0.00391, 0.00391, 0.00391, 0.00391, 0.00391, \
           0.00391, 0.00391, 0.00391, 0.00391, 0.00391, 0.00391, 0.00391, \
           0.00391, 0.00391, 0.00391, 0.00391, 0.00391, 0.00391, 0.00391, \
           0.00391, 0.00391, 0.00391, 0.00391, 0.00391, 0.00391, 0.00391, \
           0.00391, 0.00391, 0.00391, 0.00391, 0.00391, 0.00391, 0.00391, \
           0.00391, 0.00391, 0.00391, 0.00391, 0.00391, 0.00391, 0.00391, \
           0.00391, 0.00391, 0.00391, 0.00391, 0.00391, 0.00391, 0.00391, \
           0.00391, 0.00391, 0.00391, 0.00391, 0.00391, 0.00391, 0.00391, \
           0.00391, 0.00391, 0.00391, 0.00391, 0.00391, 0.00391, 0.00391, \
           0.00391, 0.00391, 0.00391, 0.00391, 0.00391, 0.00391, 0.00391, \
           0.00391, 0.00391, 0.00391, 0.00391, 0.00391, 0.00391, 0.00391, \
           0.00391, 0.00391, 0.00391, 0.00391, 0.00391, 0.00391, 0.00391, \
           0.00391, 0.00391, 0.00391, 0.00391, 0.00391, 0.00391, 0.00391, \
           0.00391, 0.00391, 0.00391, 0.00391, 0.00391, 0.00391, 0.00391, \
           0.00391, 0.00391, 0.00391, 0.00391, 0.00391, 0.00391, 0.00391, \
           0.00391, 0.00391, 0.00391, 0.00391, 0.00391, 0.00391, 0.00391, \
           0.00391, 0.00391, 0.00391, 0.00391, 0.00391, 0.00391, 0.00391, \
           0.00391, 0.00391, 0.00391, 0.00391, 0.00391, 0.00391, 0.00391, \
           0.00391, 0.00391, 0.00391, 0.00391, 0.00391, 0.00391, 0.00391, \
           0.00391, 0.00391, 0.00391, 0.00391, 0.00391, 0.00391, 0.00391, \
           0.00391, 0.00391, 0.00391, 0.00391, 0.00391, 0.00391, 0.00391, \
           0.00391, 0.00391, 0.00391, 0.00391, 0.00391, 0.00391, 0.00391, \
           0.00391, 0.00391, 0.00391, 0.00391, 0.00391, 0.00391, 0.00391, \
           0.00391, 0.00391, 0.00391, 0.00391, 0.00391, 0.00391, 0.00391, \
           0.00391, 0.00391, 0.00391, 0.00391, 0.00391, 0.00391, 0.00391, \
           0.00391, 0.00391, 0.00391, 0.00391, 0.00391, 0.00391, 0.00391, \
           0.00391, 0.00391, 0.00391, 0.00391, 0.00391, 0.00391, 0.00391, \
           0.00391, 0.00391, 0.00391, 0.00391, 0.00391, 0.00391, 0.00391, \
           0.00391, 0.00391, 0.00391, 0.00391, 0.00391, 0.00391, 0.00391, \
           0.00391, 0.00391, 0.00391, 0.00391, 0.00391, 0.00391, 0.00391, \
           0.00391, 0.00391, 0.00391, 0.00391, 0.00391, 0.00391, 0.00391, \
           0.00391, 0.00391, 0.00391, 0.00391, 0.00391, 0.00391, 0.00391, \
           0.00391, 0.00391, 0.00391, 0.00391, 0.00391, 0.00391, 0.00391
       END
     END
     RUN DEFINITION:
       Solver Input File = \
         \\10.10.13.6\C\Resources\directory\1f74c960e9304402adcb98b803ab572f.H\
         SR.AzureEE.HpcWorkerRole.jobdata\job-5\pipe01.def
       Run Mode = Full
     END
     SOLVER STEP CONTROL:
       PARALLEL ENVIRONMENT:
         Start Method = MSMPI2
         Number of Processes = 256
         Parallel Host List = rd000d3a21e6d9*256
       END
     END
   END
 END
 

 +--------------------------------------------------------------------+
 |                                                                    |
 |                            Partitioning                            |
 |                                                                    |
 +--------------------------------------------------------------------+




 +--------------------------------------------------------------------+
 |                                                                    |
 |                 ANSYS(R) CFX(R) Partitioner 15.0.7                 |
 |                                                                    |
 | Version 2014.04.10-23.00-131675     Thu Apr 10 23:23:37 GMTDT 2014 |
 |                                                                    |
 |                        Executable Attributes                       |
 |                                                                    |
 |          single-64bit-int32-supfort-optimised-noprof-lcomp         |
 |                                                                    |
 | (C) 2014 ANSYS, Inc.                                               |
 |                                                                    |
 | All rights reserved. Unauthorized use, distribution or duplication |
 | is prohibited. This product is subject to U.S. laws governing      |
 | export and re-export. For full Legal Notice, see documentation.    |
 +--------------------------------------------------------------------+




 +--------------------------------------------------------------------+
 |                  Job Information at Start of Run                   |
 +--------------------------------------------------------------------+

 Run mode:       partitioning run

 +------------------------------+------+--------+----------+----------+
 | Host                         | Mesh |  PID   |     Job Started     |
 |                              | Part |        | DD/MM/YY | hh:mm:ss |
 +------------------------------+------+--------+----------+----------+
 | RD000D3A21E6D9               |    1 |   3728 | 26/05/15 | 20:35:11 |
 +------------------------------+------+--------+----------+----------+


 +--------------------------------------------------------------------+
 |        Memory Allocated for Run  (Actual usage may be less)        |
 +--------------------------------------------------------------------+

           | Real       | Integer    | Character | Logical  | Double
 ----------+------------+------------+-----------+----------+----------
 Mwords    |       1.05 |       1.55 |      3.26 |     0.12 |     0.07
 Mbytes    |       4.00 |       5.93 |      3.11 |     0.46 |     0.52
 ----------+------------+------------+-----------+----------+----------


 +--------------------------------------------------------------------+
 |                  Host Memory Information (Mbytes)                  |
 +--------------------------------------------------------------------+
 |          Host           |     System     |   Allocated    |   %    |
 +-------------------------+----------------+----------------+--------+
 | RD000D3A21E6D9          |     57343.55   |        14.02   |   0.02 |
 +-------------------------+----------------+----------------+--------+

 +--------------------------------------------------------------------+
 |                          Mesh Statistics                           |
 +--------------------------------------------------------------------+

 Domain Name : Default Domain

     Total Number of Nodes                                =        8478

     Total Number of Elements                             =        5634
         Total Number of Hexahedrons                      =        5634

     Total Number of Faces                                =        5044

 +--------------------------------------------------------------------+
 |                     Vertex Based Partitioning                      |
 +--------------------------------------------------------------------+

 Partitioning of domain: Default Domain

 - Partitioning tool:       MeTiS multilevel k-way algorithm
 - Number of partitions:           256
 - Number of graph-nodes:         8478
 - Number of graph-edges:        44534

 +--------------------------------------------------------------------+
 |                      Partitioning Information                      |
 +--------------------------------------------------------------------+

 Partitioning information for domain: Default Domain

        +------------------+------------------------+-----------------+
        |     Elements     |        Vertices        |     Faces       |
 +------+------------------+------------------------+-----------------+
 | Part |   Number     %   |   Number     %   %Ovlp |  Number     %   |
 +------+------------------+------------------------+-----------------+
 | Full |      5634        |      8478              |     5044        |
 +------+------------------+------------------------+-----------------+
 |    1 |        36    0.3 |        84    0.4  61.9 |       33    0.4 |
 |    2 |        42    0.4 |        93    0.4  64.5 |       32    0.4 |
 |    3 |        40    0.4 |        80    0.3  58.8 |       24    0.3 |
 |    4 |        34    0.3 |        83    0.4  59.0 |       37    0.5 |
 |    5 |        40    0.4 |        80    0.3  58.8 |       24    0.3 |
 |    6 |        42    0.4 |        88    0.4  63.6 |       30    0.4 |
 |    7 |        38    0.4 |        92    0.4  63.0 |       36    0.4 |
 |    8 |        40    0.4 |        90    0.4  62.2 |       35    0.4 |
 |    9 |        47    0.4 |        97    0.4  64.9 |       24    0.3 |
 |   10 |        38    0.4 |        87    0.4  60.9 |       34    0.4 |
 |   11 |        33    0.3 |        79    0.3  59.5 |       34    0.4 |
 |   12 |        51    0.5 |       114    0.5  70.2 |       33    0.4 |
 |   13 |        43    0.4 |        96    0.4  64.6 |       33    0.4 |
 |   14 |        44    0.4 |        95    0.4  64.2 |       31    0.4 |
 |   15 |        41    0.4 |        90    0.4  63.3 |       32    0.4 |
 |   16 |        40    0.4 |        89    0.4  62.9 |       33    0.4 |
 |   17 |        46    0.4 |        92    0.4  63.0 |       24    0.3 |
 |   18 |        40    0.4 |        80    0.3  58.8 |       24    0.3 |
 |   19 |        38    0.4 |        87    0.4  62.1 |       33    0.4 |
 |   20 |        43    0.4 |       103    0.4  68.9 |       34    0.4 |
 |   21 |        36    0.3 |        84    0.4  59.5 |       36    0.4 |
 |   22 |        34    0.3 |        84    0.4  61.9 |       36    0.4 |
 |   23 |        44    0.4 |        93    0.4  64.5 |       27    0.3 |
 |   24 |        49    0.5 |       107    0.5  70.1 |       32    0.4 |
 |   25 |        27    0.3 |        67    0.3  52.2 |       34    0.4 |
 |   26 |        30    0.3 |        64    0.3  50.0 |       27    0.3 |
 |   27 |        29    0.3 |        73    0.3  56.2 |       35    0.4 |
 |   28 |        43    0.4 |        94    0.4  66.0 |       30    0.4 |
 |   29 |        44    0.4 |        90    0.4  62.2 |       25    0.3 |
 |   30 |        40    0.4 |        80    0.3  58.8 |       24    0.3 |
 |   31 |        40    0.4 |        93    0.4  63.4 |       35    0.4 |
 |   32 |        37    0.3 |        89    0.4  64.0 |       36    0.4 |
 |   33 |        38    0.4 |        87    0.4  60.9 |       34    0.4 |
 |   34 |        46    0.4 |       102    0.4  68.6 |       27    0.3 |
 |   35 |        41    0.4 |        91    0.4  63.7 |       31    0.4 |
 |   36 |        45    0.4 |        96    0.4  64.6 |       31    0.4 |
 |   37 |        42    0.4 |        98    0.4  67.3 |       34    0.4 |
 |   38 |        43    0.4 |        94    0.4  63.8 |       33    0.4 |
 |   39 |        36    0.3 |        84    0.4  59.5 |       35    0.4 |
 |   40 |        48    0.5 |       102    0.4  66.7 |       26    0.3 |
 |   41 |        40    0.4 |        80    0.3  58.8 |       24    0.3 |
 |   42 |        41    0.4 |        95    0.4  65.3 |       37    0.5 |
 |   43 |        42    0.4 |        89    0.4  61.8 |       33    0.4 |
 |   44 |        34    0.3 |        83    0.4  59.0 |       37    0.5 |
 |   45 |        42    0.4 |        93    0.4  63.4 |       32    0.4 |
 |   46 |        42    0.4 |        86    0.4  62.8 |       23    0.3 |
 |   47 |        36    0.3 |        84    0.4  61.9 |       33    0.4 |
 |   48 |        43    0.4 |        93    0.4  63.4 |       32    0.4 |
 |   49 |        39    0.4 |        88    0.4  62.5 |       33    0.4 |
 |   50 |        44    0.4 |        94    0.4  63.8 |       30    0.4 |
 |   51 |        51    0.5 |       111    0.5  71.2 |       25    0.3 |
 |   52 |        42    0.4 |        96    0.4  66.7 |       33    0.4 |
 |   53 |        40    0.4 |        90    0.4  62.2 |       33    0.4 |
 |   54 |        36    0.3 |        84    0.4  59.5 |       35    0.4 |
 |   55 |        47    0.4 |       105    0.4  69.5 |       28    0.3 |
 |   56 |        52    0.5 |       111    0.5  71.2 |       23    0.3 |
 |   57 |        38    0.4 |        87    0.4  60.9 |       34    0.4 |
 |   58 |        43    0.4 |        88    0.4  61.4 |       25    0.3 |
 |   59 |        37    0.3 |        86    0.4  61.6 |       35    0.4 |
 |   60 |        40    0.4 |        90    0.4  64.4 |       32    0.4 |
 |   61 |        38    0.4 |        91    0.4  62.6 |       38    0.5 |
 |   62 |        40    0.4 |        94    0.4  66.0 |       34    0.4 |
 |   63 |        36    0.3 |        84    0.4  61.9 |       33    0.4 |
 |   64 |        50    0.5 |       105    0.4  69.5 |       22    0.3 |
 |   65 |        48    0.5 |        98    0.4  65.3 |       24    0.3 |
 |   66 |        39    0.4 |        91    0.4  63.7 |       34    0.4 |
 |   67 |        37    0.3 |        86    0.4  61.6 |       34    0.4 |
 |   68 |        47    0.4 |       103    0.4  68.0 |       30    0.4 |
 |   69 |        45    0.4 |        95    0.4  66.3 |       26    0.3 |
 |   70 |        38    0.4 |        87    0.4  60.9 |       34    0.4 |
 |   71 |        36    0.3 |        86    0.4  61.6 |       35    0.4 |
 |   72 |        49    0.5 |       105    0.4  69.5 |       29    0.4 |
 |   73 |        48    0.5 |        99    0.4  65.7 |       26    0.3 |
 |   74 |        34    0.3 |        81    0.3  59.3 |       35    0.4 |
 |   75 |        41    0.4 |        91    0.4  62.6 |       33    0.4 |
 |   76 |        43    0.4 |        94    0.4  63.8 |       34    0.4 |
 |   77 |        43    0.4 |        97    0.4  64.9 |       32    0.4 |
 |   78 |        55    0.5 |       125    0.5  72.8 |       34    0.4 |
 |   79 |        36    0.3 |        84    0.4  59.5 |       35    0.4 |
 |   80 |        50    0.5 |       104    0.4  67.3 |       23    0.3 |
 |   81 |        35    0.3 |        86    0.4  60.5 |       38    0.5 |
 |   82 |        52    0.5 |       116    0.5  72.4 |       28    0.3 |
 |   83 |        48    0.5 |        99    0.4  65.7 |       28    0.3 |
 |   84 |        35    0.3 |        85    0.4  61.2 |       36    0.4 |
 |   85 |        38    0.4 |        87    0.4  60.9 |       34    0.4 |
 |   86 |        43    0.4 |        88    0.4  61.4 |       27    0.3 |
 |   87 |        36    0.3 |        92    0.4  65.2 |       38    0.5 |
 |   88 |        48    0.5 |       104    0.4  69.2 |       31    0.4 |
 |   89 |        35    0.3 |        89    0.4  61.8 |       39    0.5 |
 |   90 |        40    0.4 |        98    0.4  67.3 |       38    0.5 |
 |   91 |        54    0.5 |       123    0.5  74.0 |       32    0.4 |
 |   92 |        47    0.4 |       102    0.4  67.6 |       27    0.3 |
 |   93 |        43    0.4 |        98    0.4  66.3 |       33    0.4 |
 |   94 |        36    0.3 |        84    0.4  59.5 |       36    0.4 |
 |   95 |        44    0.4 |        89    0.4  61.8 |       25    0.3 |
 |   96 |        44    0.4 |        90    0.4  64.4 |       24    0.3 |
 |   97 |        38    0.4 |        87    0.4  62.1 |       33    0.4 |
 |   98 |        38    0.4 |        92    0.4  65.2 |       36    0.4 |
 |   99 |        46    0.4 |        92    0.4  63.0 |       25    0.3 |
 |  100 |        38    0.4 |        87    0.4  60.9 |       34    0.4 |
 |  101 |        47    0.4 |       102    0.4  67.6 |       31    0.4 |
 |  102 |        39    0.4 |        90    0.4  63.3 |       34    0.4 |
 |  103 |        44    0.4 |        94    0.4  63.8 |       31    0.4 |
 |  104 |        41    0.4 |        92    0.4  63.0 |       34    0.4 |
 |  105 |        40    0.4 |        89    0.4  64.0 |       32    0.4 |
 |  106 |        36    0.3 |        84    0.4  61.9 |       33    0.4 |
 |  107 |        43    0.4 |        88    0.4  62.5 |       25    0.3 |
 |  108 |        38    0.4 |        86    0.4  61.6 |       33    0.4 |
 |  109 |        40    0.4 |        93    0.4  63.4 |       35    0.4 |
 |  110 |        45    0.4 |        97    0.4  64.9 |       32    0.4 |
 |  111 |        55    0.5 |       117    0.5  70.9 |       26    0.3 |
 |  112 |        34    0.3 |        81    0.3  59.3 |       35    0.4 |
 |  113 |        41    0.4 |        92    0.4  63.0 |       34    0.4 |
 |  114 |        44    0.4 |        94    0.4  66.0 |       30    0.4 |
 |  115 |        31    0.3 |        80    0.3  60.0 |       38    0.5 |
 |  116 |        54    0.5 |       112    0.5  69.6 |       24    0.3 |
 |  117 |        40    0.4 |        80    0.3  58.8 |       24    0.3 |
 |  118 |        43    0.4 |        88    0.4  63.6 |       23    0.3 |
 |  119 |        38    0.4 |        90    0.4  64.4 |       34    0.4 |
 |  120 |        38    0.4 |        87    0.4  60.9 |       34    0.4 |
 |  121 |        38    0.4 |        87    0.4  60.9 |       34    0.4 |
 |  122 |        40    0.4 |        93    0.4  63.4 |       38    0.5 |
 |  123 |        44    0.4 |        89    0.4  64.0 |       22    0.3 |
 |  124 |        36    0.3 |        88    0.4  63.6 |       36    0.4 |
 |  125 |        38    0.4 |        87    0.4  60.9 |       35    0.4 |
 |  126 |        42    0.4 |        86    0.4  62.8 |       24    0.3 |
 |  127 |        37    0.3 |        88    0.4  61.4 |       36    0.4 |
 |  128 |        46    0.4 |        97    0.4  67.0 |       28    0.3 |
 |  129 |        44    0.4 |        89    0.4  61.8 |       26    0.3 |
 |  130 |        35    0.3 |        86    0.4  60.5 |       38    0.5 |
 |  131 |        43    0.4 |       101    0.4  68.3 |       33    0.4 |
 |  132 |        42    0.4 |        93    0.4  63.4 |       34    0.4 |
 |  133 |        42    0.4 |        93    0.4  63.4 |       32    0.4 |
 |  134 |        44    0.4 |        95    0.4  66.3 |       29    0.4 |
 |  135 |        34    0.3 |        84    0.4  61.9 |       36    0.4 |
 |  136 |        46    0.4 |        97    0.4  66.0 |       26    0.3 |
 |  137 |        53    0.5 |       110    0.5  69.1 |       23    0.3 |
 |  138 |        36    0.3 |        91    0.4  64.8 |       38    0.5 |
 |  139 |        38    0.4 |        90    0.4  64.4 |       35    0.4 |
 |  140 |        45    0.4 |        94    0.4  66.0 |       24    0.3 |
 |  141 |        39    0.4 |        95    0.4  66.3 |       37    0.5 |
 |  142 |        38    0.4 |        87    0.4  62.1 |       33    0.4 |
 |  143 |        42    0.4 |        88    0.4  63.6 |       30    0.4 |
 |  144 |        40    0.4 |        80    0.3  60.0 |       23    0.3 |
 |  145 |        39    0.4 |        91    0.4  62.6 |       36    0.4 |
 |  146 |        31    0.3 |        73    0.3  53.4 |       36    0.4 |
 |  147 |        41    0.4 |        86    0.4  60.5 |       28    0.3 |
 |  148 |        31    0.3 |        76    0.3  56.6 |       35    0.4 |
 |  149 |        40    0.4 |        93    0.4  63.4 |       37    0.5 |
 |  150 |        41    0.4 |        88    0.4  63.6 |       26    0.3 |
 |  151 |        42    0.4 |        93    0.4  63.4 |       32    0.4 |
 |  152 |        41    0.4 |        91    0.4  63.7 |       31    0.4 |
 |  153 |        36    0.3 |        84    0.4  59.5 |       35    0.4 |
 |  154 |        40    0.4 |        90    0.4  64.4 |       31    0.4 |
 |  155 |        40    0.4 |        80    0.3  58.8 |       24    0.3 |
 |  156 |        40    0.4 |        80    0.3  58.8 |       24    0.3 |
 |  157 |        49    0.5 |       104    0.4  69.2 |       23    0.3 |
 |  158 |        36    0.3 |        90    0.4  64.4 |       37    0.5 |
 |  159 |        37    0.3 |        96    0.4  64.6 |       41    0.5 |
 |  160 |        50    0.5 |       111    0.5  70.3 |       33    0.4 |
 |  161 |        38    0.4 |        90    0.4  62.2 |       36    0.4 |
 |  162 |        38    0.4 |        87    0.4  60.9 |       34    0.4 |
 |  163 |        41    0.4 |        86    0.4  62.8 |       26    0.3 |
 |  164 |        44    0.4 |        90    0.4  64.4 |       24    0.3 |
 |  165 |        36    0.3 |        84    0.4  59.5 |       35    0.4 |
 |  166 |        44    0.4 |        93    0.4  64.5 |       26    0.3 |
 |  167 |        40    0.4 |        90    0.4  63.3 |       32    0.4 |
 |  168 |        45    0.4 |        92    0.4  63.0 |       29    0.4 |
 |  169 |        40    0.4 |        80    0.3  58.8 |       24    0.3 |
 |  170 |        40    0.4 |        80    0.3  58.8 |       24    0.3 |
 |  171 |        39    0.4 |        91    0.4  62.6 |       35    0.4 |
 |  172 |        40    0.4 |        93    0.4  63.4 |       35    0.4 |
 |  173 |        34    0.3 |        86    0.4  62.8 |       38    0.5 |
 |  174 |        47    0.4 |       107    0.5  68.2 |       39    0.5 |
 |  175 |        45    0.4 |        92    0.4  63.0 |       26    0.3 |
 |  176 |        51    0.5 |       116    0.5  70.7 |       37    0.5 |
 |  177 |        46    0.4 |        96    0.4  64.6 |       27    0.3 |
 |  178 |        40    0.4 |        80    0.3  58.8 |       24    0.3 |
 |  179 |        46    0.4 |       106    0.5  67.9 |       34    0.4 |
 |  180 |        34    0.3 |        83    0.4  59.0 |       37    0.5 |
 |  181 |        40    0.4 |        93    0.4  63.4 |       35    0.4 |
 |  182 |        42    0.4 |        86    0.4  60.5 |       26    0.3 |
 |  183 |        38    0.4 |        87    0.4  63.2 |       32    0.4 |
 |  184 |        43    0.4 |        99    0.4  67.7 |       33    0.4 |
 |  185 |        44    0.4 |        95    0.4  66.3 |       29    0.4 |
 |  186 |        36    0.3 |        80    0.3  58.8 |       32    0.4 |
 |  187 |        49    0.5 |       109    0.5  70.6 |       28    0.3 |
 |  188 |        38    0.4 |        87    0.4  60.9 |       34    0.4 |
 |  189 |        45    0.4 |        96    0.4  65.6 |       28    0.3 |
 |  190 |        39    0.4 |        91    0.4  62.6 |       35    0.4 |
 |  191 |        41    0.4 |        92    0.4  64.1 |       33    0.4 |
 |  192 |        48    0.5 |       114    0.5  71.9 |       33    0.4 |
 |  193 |        36    0.3 |        84    0.4  61.9 |       33    0.4 |
 |  194 |        45    0.4 |        98    0.4  67.3 |       29    0.4 |
 |  195 |        45    0.4 |       103    0.4  67.0 |       36    0.4 |
 |  196 |        38    0.4 |        90    0.4  64.4 |       34    0.4 |
 |  197 |        39    0.4 |        88    0.4  61.4 |       33    0.4 |
 |  198 |        42    0.4 |        88    0.4  61.4 |       33    0.4 |
 |  199 |        44    0.4 |        90    0.4  62.2 |       26    0.3 |
 |  200 |        41    0.4 |        91    0.4  63.7 |       31    0.4 |
 |  201 |        52    0.5 |       112    0.5  69.6 |       28    0.3 |
 |  202 |        38    0.4 |        87    0.4  60.9 |       34    0.4 |
 |  203 |        41    0.4 |        98    0.4  67.3 |       35    0.4 |
 |  204 |        48    0.5 |       109    0.5  70.6 |       30    0.4 |
 |  205 |        43    0.4 |        90    0.4  62.2 |       30    0.4 |
 |  206 |        40    0.4 |        94    0.4  64.9 |       36    0.4 |
 |  207 |        44    0.4 |        89    0.4  61.8 |       24    0.3 |
 |  208 |        40    0.4 |        90    0.4  63.3 |       32    0.4 |
 |  209 |        43    0.4 |       101    0.4  68.3 |       34    0.4 |
 |  210 |        38    0.4 |        91    0.4  63.7 |       36    0.4 |
 |  211 |        44    0.4 |        89    0.4  61.8 |       25    0.3 |
 |  212 |        42    0.4 |        93    0.4  65.6 |       31    0.4 |
 |  213 |        42    0.4 |        88    0.4  61.4 |       32    0.4 |
 |  214 |        43    0.4 |        88    0.4  61.4 |       26    0.3 |
 |  215 |        38    0.4 |        87    0.4  62.1 |       34    0.4 |
 |  216 |        42    0.4 |        95    0.4  66.3 |       31    0.4 |
 |  217 |        43    0.4 |        97    0.4  64.9 |       32    0.4 |
 |  218 |        45    0.4 |        99    0.4  67.7 |       29    0.4 |
 |  219 |        51    0.5 |       107    0.5  70.1 |       23    0.3 |
 |  220 |        33    0.3 |        82    0.3  61.0 |       36    0.4 |
 |  221 |        36    0.3 |        84    0.4  59.5 |       36    0.4 |
 |  222 |        42    0.4 |       104    0.4  68.3 |       39    0.5 |
 |  223 |        49    0.5 |       100    0.4  68.0 |       20    0.2 |
 |  224 |        45    0.4 |        92    0.4  63.0 |       30    0.4 |
 |  225 |        40    0.4 |        89    0.4  61.8 |       33    0.4 |
 |  226 |        37    0.3 |        85    0.4  62.4 |       33    0.4 |
 |  227 |        47    0.4 |       107    0.5  69.2 |       33    0.4 |
 |  228 |        47    0.4 |        98    0.4  65.3 |       26    0.3 |
 |  229 |        36    0.3 |        84    0.4  61.9 |       33    0.4 |
 |  230 |        50    0.5 |       102    0.4  67.6 |       22    0.3 |
 |  231 |        41    0.4 |        94    0.4  64.9 |       32    0.4 |
 |  232 |        40    0.4 |        92    0.4  65.2 |       33    0.4 |
 |  233 |        36    0.3 |        87    0.4  63.2 |       35    0.4 |
 |  234 |        39    0.4 |        91    0.4  62.6 |       39    0.5 |
 |  235 |        44    0.4 |        90    0.4  64.4 |       24    0.3 |
 |  236 |        43    0.4 |        94    0.4  63.8 |       34    0.4 |
 |  237 |        40    0.4 |        80    0.3  58.8 |       24    0.3 |
 |  238 |        43    0.4 |        87    0.4  60.9 |       24    0.3 |
 |  239 |        48    0.5 |       112    0.5  69.6 |       36    0.4 |
 |  240 |        39    0.4 |        91    0.4  61.5 |       36    0.4 |
 |  241 |        38    0.4 |        90    0.4  64.4 |       37    0.5 |
 |  242 |        38    0.4 |        87    0.4  60.9 |       34    0.4 |
 |  243 |        39    0.4 |        88    0.4  63.6 |       32    0.4 |
 |  244 |        43    0.4 |        88    0.4  62.5 |       25    0.3 |
 |  245 |        39    0.4 |        84    0.4  61.9 |       30    0.4 |
 |  246 |        40    0.4 |        90    0.4  63.3 |       32    0.4 |
 |  247 |        36    0.3 |        84    0.4  59.5 |       35    0.4 |
 |  248 |        43    0.4 |        91    0.4  64.8 |       25    0.3 |
 |  249 |        48    0.5 |       105    0.4  70.5 |       24    0.3 |
 |  250 |        40    0.4 |        96    0.4  64.6 |       37    0.5 |
 |  251 |        47    0.4 |       101    0.4  66.3 |       29    0.4 |
 |  252 |        36    0.3 |        84    0.4  59.5 |       36    0.4 |
 |  253 |        46    0.4 |        92    0.4  63.0 |       24    0.3 |
 |  254 |        50    0.5 |       114    0.5  70.2 |       38    0.5 |
 |  255 |        37    0.3 |        89    0.4  61.8 |       37    0.5 |
 |  256 |        38    0.4 |        92    0.4  63.0 |       37    0.5 |
 +------+------------------+------------------------+-----------------+
 | Min  |        27    0.3 |        64    0.3  50.0 |       20    0.2 |
 |(part)|           (   25)|           (   26    26)|          (  223)|
 +------+------------------+------------------------+-----------------+
 | Max  |        55    0.5 |       125    0.5  72.8 |       41    0.5 |
 |(part)|           (   78)|           (   78    78)|          (  159)|
 +------+------------------+------------------------+-----------------+
 | Ave  |        41    0.4 |        92    0.4  64.1 |       31    0.4 |
 +------+------------------+------------------------+-----------------+
 | Sum  |     10586  100.0 |     23549  100.0  64.0 |     8020  100.0 |
 +------+------------------+------------------------+-----------------+

 +--------------------------------------------------------------------+
 |                 Partitioning CPU-Time Requirements                 |
 +--------------------------------------------------------------------+
  
 - Preparations                                       6.300E-02 seconds
 - Low-level mesh partitioning                        1.560E-01 seconds
 - Global partitioning information                    0.000E+00 seconds
 - Element and face partitioning information          0.000E+00 seconds
 - Vertex partitioning information                    0.000E+00 seconds
 - Partitioning information compression               1.600E-02 seconds
 - Summed CPU-time for mesh partitioning              3.750E-01 seconds

 +--------------------------------------------------------------------+
 |                   Job Information at End of Run                    |
 +--------------------------------------------------------------------+

 +---------------------------+------+----------+----------+-----------+
 | Host                      | Mesh |     Job Finished    |    CPU    |
 |                           | Part | DD/MM/YY | hh:mm:ss |  seconds  |
 +---------------------------+------+----------+----------+-----------+
 | RD000D3A21E6D9            |    1 | 26/05/15 | 20:35:16 | 5.477E+00 |
 +---------------------------+------+----------+----------+-----------+

 Total wall clock time: 5.134E+00 seconds
             or: (          0:         0:         0:     5.134 )
                 (       Days:     Hours:   Minutes:   Seconds )


 +--------------------------------------------------------------------+
 |                                                                    |
 |                               Solver                               |
 |                                                                    |
 +--------------------------------------------------------------------+


 +--------------------------------------------------------------------+
 |                An error has occurred in cfx5solve:                 |
 |                                                                    |
 | The ANSYS CFX solver could not be started, or exited with return   |
 | code 255: .  No results file has been created.                     |
 +--------------------------------------------------------------------+

End of solution stage.

This run of the ANSYS CFX Solver has finished.
