 This run of the CFX-15.0.7 Solver started at 05:59:02 on 01 Jun 2015 by
 user MpiUser on RD000D3A21B506 (intel_xeon64.sse2_winnt) using the
 command:
 
  "\\hsransys.file.core.windows.net\main\apps\ANSYS Inc\v150\CFX\bin\perllib\cfx5solve.pl"
    -def pipe06.def -chdir
    \\10.10.13.6\C\Resources\directory\2bc7ac682032419fbc263b1290f8f1a0.HSR.AzureEE.HpcWorkerRole.jobdata\job-10
    -start-method MSMPI2 -part 256
 
 Point Releases and Patches installed:
 
  ANSYS, Inc. Products 15.0.7
  ANSYS Mechanical Products 15.0.7
  ANSYS Autodyn 15.0.7
  ANSYS LS-DYNA 15.0.7
  ANSYS CFX (includes ANSYS CFD-Post) 15.0.7
  ANSYS Fluent (includes ANSYS CFD-Post) 15.0.7
  ANSYS TurboGrid 15.0.7
  ANSYS Polyflow (includes ANSYS CFD-Post) 15.0.7
  ANSYS Aqwa 15.0.7
  ANSYS ICEM CFD 15.0.7
  ANSYS Icepak (includes ANSYS CFD-Post) 15.0.7
  Catia, Version 6 15.0.7
  ANSYS, Inc. License Manager 15.0.7
 
 Setting up CFX Solver run ...
 

 +--------------------------------------------------------------------+
 |                              Warning!                              |
 |                                                                    |
 | The working directory is a UNC path, but the Windows command shell |
 | is currently not configured to support UNC paths. This may cause   |
 | failure of the CFX Solver.                                         |
 |                                                                    |
 | Command shell support for UNC paths can be enabled by setting the  |
 | Windows registry key DisableUNCCheck.                              |
 +--------------------------------------------------------------------+


 +--------------------------------------------------------------------+
 |                                                                    |
 |                    CFX Command Language Upgrade                    |
 |                                                                    |
 +--------------------------------------------------------------------+

 Added /SIMULATION CONTROL/EXECUTION CONTROL/EXECUTABLE SELECTION/Double
 Precision = Off.
 

 +--------------------------------------------------------------------+
 |                                                                    |
 |                    CFX Command Language for Run                    |
 |                                                                    |
 +--------------------------------------------------------------------+

 LIBRARY:
   CEL:
     EXPRESSIONS:
       DeltaT = probe(T)@MP3-273.15[K]
     END
   END
   MATERIAL: PE100RC
     Material Group = CHT Solids
     Option = Pure Substance
     Thermodynamic State = Solid
     PROPERTIES:
       Option = General Material
       EQUATION OF STATE:
         Density = 960 [kg m^-3]
         Molar Mass = 1.0 [kg kmol^-1]
         Option = Value
       END
       SPECIFIC HEAT CAPACITY:
         Option = Value
         Specific Heat Capacity = 1900 [J kg^-1 K^-1]
       END
       THERMAL CONDUCTIVITY:
         Option = Value
         Thermal Conductivity = 0.38 [W m^-1 K^-1]
       END
     END
   END
   MATERIAL: Water Glycol Mixture
     Material Description = Water (liquid)
     Material Group = Water Data,Constant Property Liquids
     Option = Pure Substance
     Thermodynamic State = Liquid
     PROPERTIES:
       Option = General Material
       EQUATION OF STATE:
         Density = 1042 [kg m^-3]
         Molar Mass = 18.02 [kg kmol^-1]
         Option = Value
       END
       SPECIFIC HEAT CAPACITY:
         Option = Value
         Specific Heat Capacity = 3481 [J kg^-1 K^-1]
         Specific Heat Type = Constant Pressure
       END
       REFERENCE STATE:
         Option = Specified Point
         Reference Pressure = 1 [atm]
         Reference Specific Enthalpy = 0.0 [J/kg]
         Reference Specific Entropy = 0.0 [J/kg/K]
         Reference Temperature = 0 [C]
       END
       DYNAMIC VISCOSITY:
         Dynamic Viscosity = 8.899E-4 [kg m^-1 s^-1]
         Option = Value
       END
       THERMAL CONDUCTIVITY:
         Option = Value
         Thermal Conductivity = 0.6069 [W m^-1 K^-1]
       END
       ABSORPTION COEFFICIENT:
         Absorption Coefficient = 1.0 [m^-1]
         Option = Value
       END
       SCATTERING COEFFICIENT:
         Option = Value
         Scattering Coefficient = 0.0 [m^-1]
       END
       REFRACTIVE INDEX:
         Option = Value
         Refractive Index = 1.0 [m m^-1]
       END
       THERMAL EXPANSIVITY:
         Option = Value
         Thermal Expansivity = 2.57E-04 [K^-1]
       END
     END
   END
 END
 FLOW: Flow Analysis 1
   SOLUTION UNITS:
     Angle Units = [rad]
     Length Units = [m]
     Mass Units = [kg]
     Solid Angle Units = [sr]
     Temperature Units = [K]
     Time Units = [s]
   END
   ANALYSIS TYPE:
     Option = Steady State
     EXTERNAL SOLVER COUPLING:
       Option = None
     END
   END
   DOMAIN: FluidDom
     Coord Frame = Coord 0
     Domain Type = Fluid
     Location = B446
     BOUNDARY: Default Fluid Solid Interface Side 1
       Boundary Type = INTERFACE
       Location = F449.446,F450.446,F452.446,F453.446,F454.446
       BOUNDARY CONDITIONS:
         HEAT TRANSFER:
           Option = Conservative Interface Flux
         END
         MASS AND MOMENTUM:
           Option = No Slip Wall
         END
         WALL ROUGHNESS:
           Option = Smooth Wall
         END
       END
     END
     BOUNDARY: Domain Interface 1 Side 1 1
       Boundary Type = INTERFACE
       Location = FluidSym01
       BOUNDARY CONDITIONS:
         HEAT TRANSFER:
           Option = Conservative Interface Flux
         END
         MASS AND MOMENTUM:
           Option = Conservative Interface Flux
         END
         TURBULENCE:
           Option = Conservative Interface Flux
         END
       END
     END
     BOUNDARY: Domain Interface 2 Side 1
       Boundary Type = INTERFACE
       Location = FluidSym02
       BOUNDARY CONDITIONS:
         HEAT TRANSFER:
           Option = Conservative Interface Flux
         END
         MASS AND MOMENTUM:
           Option = Conservative Interface Flux
         END
         TURBULENCE:
           Option = Conservative Interface Flux
         END
       END
     END
     BOUNDARY: Inlet
       Boundary Type = INLET
       Location = F447.446
       BOUNDARY CONDITIONS:
         FLOW REGIME:
           Option = Subsonic
         END
         HEAT TRANSFER:
           Option = Static Temperature
           Static Temperature = 273.15 [K]
         END
         MASS AND MOMENTUM:
           Normal Speed = 0.05 [m s^-1]
           Option = Normal Speed
         END
         TURBULENCE:
           Option = Medium Intensity and Eddy Viscosity Ratio
         END
       END
     END
     BOUNDARY: Outlet
       Boundary Type = OUTLET
       Location = F451.446
       BOUNDARY CONDITIONS:
         FLOW REGIME:
           Option = Subsonic
         END
         MASS AND MOMENTUM:
           Normal Speed = 0.05 [m s^-1]
           Option = Normal Speed
         END
       END
     END
     DOMAIN MODELS:
       BUOYANCY MODEL:
         Option = Non Buoyant
       END
       DOMAIN MOTION:
         Option = Stationary
       END
       MESH DEFORMATION:
         Option = None
       END
       REFERENCE PRESSURE:
         Reference Pressure = 1 [atm]
       END
     END
     FLUID DEFINITION: Fluid 1
       Material = Water Glycol Mixture
       Option = Material Library
       MORPHOLOGY:
         Option = Continuous Fluid
       END
     END
     FLUID MODELS:
       COMBUSTION MODEL:
         Option = None
       END
       HEAT TRANSFER MODEL:
         Option = Thermal Energy
       END
       THERMAL RADIATION MODEL:
         Option = None
       END
       TURBULENCE MODEL:
         Option = k epsilon
       END
       TURBULENT WALL FUNCTIONS:
         Option = Scalable
       END
     END
     SOURCE POINT: Origin
       Cartesian Coordinates = 0.0[m],0.0[m],0.0[m]
       Option = Cartesian Coordinates
     END
   END
   DOMAIN: TubeDom
     Coord Frame = Coord 0
     Domain Type = Solid
     Location = B378,B662
     BOUNDARY: Default Fluid Solid Interface Side 2
       Boundary Type = INTERFACE
       Location = \
         F379.378,F380.378,F381.378,F382.378,F383.378,F666.662,F668.662,F670.6\
         62,F672.662,F674.662
       BOUNDARY CONDITIONS:
         HEAT TRANSFER:
           Option = Conservative Interface Flux
         END
       END
     END
     BOUNDARY: Domain Interface 1 Side 1
       Boundary Type = INTERFACE
       Location = TubeIntFace01
       BOUNDARY CONDITIONS:
         HEAT TRANSFER:
           Option = Conservative Interface Flux
         END
       END
     END
     BOUNDARY: Domain Interface 1 Side 2
       Boundary Type = INTERFACE
       Location = TubeIntFace02
       BOUNDARY CONDITIONS:
         HEAT TRANSFER:
           Option = Conservative Interface Flux
         END
       END
     END
     BOUNDARY: Domain Interface 2 Side 2
       Boundary Type = INTERFACE
       Location = TubeSymFace01
       BOUNDARY CONDITIONS:
         HEAT TRANSFER:
           Option = Conservative Interface Flux
         END
       END
     END
     BOUNDARY: SymmetrieSolid Side 1
       Boundary Type = INTERFACE
       Location = TubeSymFace02
       BOUNDARY CONDITIONS:
         HEAT TRANSFER:
           Option = Conservative Interface Flux
         END
       END
     END
     BOUNDARY: TubeDom Default
       Boundary Type = WALL
       Location = \
         F390.378,F391.378,F392.378,F393.378,F394.378,F676.662,F677.662,F678.6\
         62,F679.662,F680.662
       BOUNDARY CONDITIONS:
         HEAT TRANSFER:
           Option = Adiabatic
         END
       END
     END
     BOUNDARY: TubeOuterWallAdia
       Boundary Type = WALL
       Location = TubeOuterWall01
       BOUNDARY CONDITIONS:
         HEAT TRANSFER:
           Option = Adiabatic
         END
       END
     END
     BOUNDARY: TubeOuterWallHeatex
       Boundary Type = WALL
       Location = TubeOuterWall02
       BOUNDARY CONDITIONS:
         HEAT TRANSFER:
           Fixed Temperature = 283.15 [K]
           Option = Fixed Temperature
         END
       END
     END
     DOMAIN MODELS:
       DOMAIN MOTION:
         Option = Stationary
       END
       MESH DEFORMATION:
         Option = None
       END
     END
     SOLID DEFINITION: Solid 1
       Material = PE100RC
       Option = Material Library
       MORPHOLOGY:
         Option = Continuous Solid
       END
     END
     SOLID MODELS:
       HEAT TRANSFER MODEL:
         Option = Thermal Energy
       END
       THERMAL RADIATION MODEL:
         Option = None
       END
     END
   END
   DOMAIN INTERFACE: Default Fluid Solid Interface
     Boundary List1 = Default Fluid Solid Interface Side 1
     Boundary List2 = Default Fluid Solid Interface Side 2
     Interface Type = Fluid Solid
     INTERFACE MODELS:
       Option = General Connection
       FRAME CHANGE:
         Option = None
       END
       PITCH CHANGE:
         Option = None
       END
     END
     MESH CONNECTION:
       Option = Automatic
     END
   END
   DOMAIN INTERFACE: Domain Interface 1
     Boundary List1 = Domain Interface 1 Side 1
     Boundary List2 = Domain Interface 1 Side 2
     Interface Type = Solid Solid
     INTERFACE MODELS:
       Option = General Connection
       FRAME CHANGE:
         Option = None
       END
       PITCH CHANGE:
         Option = None
       END
     END
     MESH CONNECTION:
       Option = Automatic
     END
   END
   DOMAIN INTERFACE: SymmetrieFluid
     Boundary List1 = Domain Interface 1 Side 1 1
     Boundary List2 = Domain Interface 2 Side 1
     Interface Type = Fluid Fluid
     INTERFACE MODELS:
       Option = Rotational Periodicity
       AXIS DEFINITION:
         Option = Coordinate Axis
         Rotation Axis = Coord 0.1
       END
     END
     MESH CONNECTION:
       Option = GGI
       INTERSECTION CONTROL:
         Option = Direct
         Periodic Axial Radial Tolerance = 0.001
       END
     END
   END
   DOMAIN INTERFACE: SymmetrieSolid
     Boundary List1 = Domain Interface 2 Side 2
     Boundary List2 = SymmetrieSolid Side 1
     Interface Type = Solid Solid
     INTERFACE MODELS:
       Option = Rotational Periodicity
       AXIS DEFINITION:
         Option = Coordinate Axis
         Rotation Axis = Coord 0.1
       END
     END
     MESH CONNECTION:
       Option = Automatic
       INTERSECTION CONTROL:
         Option = Direct
         Periodic Axial Radial Tolerance = 0.0001
       END
     END
   END
   OUTPUT CONTROL:
     MONITOR OBJECTS:
       MONITOR BALANCES:
         Option = Full
       END
       MONITOR FORCES:
         Option = Full
       END
       MONITOR PARTICLES:
         Option = Full
       END
       MONITOR POINT: MP1
         Cartesian Coordinates = 2.5 [m], 0 [m], 0 [m]
         Coord Frame = Coord 0
         Option = Cartesian Coordinates
         Output Variables List = Courant Number,Pressure,Temperature,Velocity
         MONITOR LOCATION CONTROL:
           Interpolation Type = Nearest Vertex
         END
         POSITION UPDATE FREQUENCY:
           Option = Initial Mesh Only
         END
       END
       MONITOR POINT: MP2
         Cartesian Coordinates = 2.5 [m], 0.012 [m], 0 [m]
         Coord Frame = Coord 0
         Option = Cartesian Coordinates
         Output Variables List = Courant Number,Pressure,Temperature,Velocity
         MONITOR LOCATION CONTROL:
           Interpolation Type = Nearest Vertex
         END
         POSITION UPDATE FREQUENCY:
           Option = Initial Mesh Only
         END
       END
       MONITOR POINT: MP3
         Cartesian Coordinates = 2.5 [m], 0.024 [m], 0 [m]
         Coord Frame = Coord 0
         Option = Cartesian Coordinates
         Output Variables List = Courant Number,Pressure,Temperature,Velocity
         MONITOR LOCATION CONTROL:
           Interpolation Type = Nearest Vertex
         END
         POSITION UPDATE FREQUENCY:
           Option = Initial Mesh Only
         END
       END
       MONITOR POINT: MP3_1
         Coord Frame = Coord 0
         Expression Value = DeltaT
         Option = Expression
       END
       MONITOR RESIDUALS:
         Option = Full
       END
       MONITOR TOTALS:
         Option = Full
       END
     END
     RESULTS:
       File Compression Level = Default
       Option = Standard
     END
   END
   SOLVER CONTROL:
     Turbulence Numerics = First Order
     ADVECTION SCHEME:
       Option = High Resolution
     END
     CONVERGENCE CONTROL:
       Length Scale Option = Conservative
       Maximum Number of Iterations = 200
       Minimum Number of Iterations = 1
       Solid Timescale Control = Auto Timescale
       Timescale Control = Auto Timescale
       Timescale Factor = 1.0
     END
     CONVERGENCE CRITERIA:
       Residual Target = 0.000001
       Residual Type = RMS
     END
     DYNAMIC MODEL CONTROL:
       Global Dynamic Model Control = On
     END
   END
 END
 COMMAND FILE:
   Version = 16.0
   Results Version = 15.0.7
 END
 SIMULATION CONTROL:
   EXECUTION CONTROL:
     EXECUTABLE SELECTION:
       Double Precision = Off
     END
     PARALLEL HOST LIBRARY:
       HOST DEFINITION: rd000d3a21b506
         Host Architecture String = winnt-amd64
         Installation Root = \\hsransys.file.core.windows.net\main\apps\ANSYS \
           Inc\v%v\CFX
       END
     END
     PARTITIONER STEP CONTROL:
       PARTITIONING TYPE:
         Option = MeTiS
         MeTiS Type = k-way
         Partition Size Rule = Automatic
         Partition Weight Factors = 0.00391, 0.00391, 0.00391, 0.00391, \
           0.00391, 0.00391, 0.00391, 0.00391, 0.00391, 0.00391, 0.00391, \
           0.00391, 0.00391, 0.00391, 0.00391, 0.00391, 0.00391, 0.00391, \
           0.00391, 0.00391, 0.00391, 0.00391, 0.00391, 0.00391, 0.00391, \
           0.00391, 0.00391, 0.00391, 0.00391, 0.00391, 0.00391, 0.00391, \
           0.00391, 0.00391, 0.00391, 0.00391, 0.00391, 0.00391, 0.00391, \
           0.00391, 0.00391, 0.00391, 0.00391, 0.00391, 0.00391, 0.00391, \
           0.00391, 0.00391, 0.00391, 0.00391, 0.00391, 0.00391, 0.00391, \
           0.00391, 0.00391, 0.00391, 0.00391, 0.00391, 0.00391, 0.00391, \
           0.00391, 0.00391, 0.00391, 0.00391, 0.00391, 0.00391, 0.00391, \
           0.00391, 0.00391, 0.00391, 0.00391, 0.00391, 0.00391, 0.00391, \
           0.00391, 0.00391, 0.00391, 0.00391, 0.00391, 0.00391, 0.00391, \
           0.00391, 0.00391, 0.00391, 0.00391, 0.00391, 0.00391, 0.00391, \
           0.00391, 0.00391, 0.00391, 0.00391, 0.00391, 0.00391, 0.00391, \
           0.00391, 0.00391, 0.00391, 0.00391, 0.00391, 0.00391, 0.00391, \
           0.00391, 0.00391, 0.00391, 0.00391, 0.00391, 0.00391, 0.00391, \
           0.00391, 0.00391, 0.00391, 0.00391, 0.00391, 0.00391, 0.00391, \
           0.00391, 0.00391, 0.00391, 0.00391, 0.00391, 0.00391, 0.00391, \
           0.00391, 0.00391, 0.00391, 0.00391, 0.00391, 0.00391, 0.00391, \
           0.00391, 0.00391, 0.00391, 0.00391, 0.00391, 0.00391, 0.00391, \
           0.00391, 0.00391, 0.00391, 0.00391, 0.00391, 0.00391, 0.00391, \
           0.00391, 0.00391, 0.00391, 0.00391, 0.00391, 0.00391, 0.00391, \
           0.00391, 0.00391, 0.00391, 0.00391, 0.00391, 0.00391, 0.00391, \
           0.00391, 0.00391, 0.00391, 0.00391, 0.00391, 0.00391, 0.00391, \
           0.00391, 0.00391, 0.00391, 0.00391, 0.00391, 0.00391, 0.00391, \
           0.00391, 0.00391, 0.00391, 0.00391, 0.00391, 0.00391, 0.00391, \
           0.00391, 0.00391, 0.00391, 0.00391, 0.00391, 0.00391, 0.00391, \
           0.00391, 0.00391, 0.00391, 0.00391, 0.00391, 0.00391, 0.00391, \
           0.00391, 0.00391, 0.00391, 0.00391, 0.00391, 0.00391, 0.00391, \
           0.00391, 0.00391, 0.00391, 0.00391, 0.00391, 0.00391, 0.00391, \
           0.00391, 0.00391, 0.00391, 0.00391, 0.00391, 0.00391, 0.00391, \
           0.00391, 0.00391, 0.00391, 0.00391, 0.00391, 0.00391, 0.00391, \
           0.00391, 0.00391, 0.00391, 0.00391, 0.00391, 0.00391, 0.00391, \
           0.00391, 0.00391, 0.00391, 0.00391, 0.00391, 0.00391, 0.00391, \
           0.00391, 0.00391, 0.00391, 0.00391, 0.00391, 0.00391, 0.00391, \
           0.00391, 0.00391, 0.00391, 0.00391, 0.00391, 0.00391, 0.00391, \
           0.00391, 0.00391, 0.00391, 0.00391, 0.00391, 0.00391, 0.00391
       END
     END
     RUN DEFINITION:
       Solver Input File = \
         \\10.10.13.6\C\Resources\directory\2bc7ac682032419fbc263b1290f8f1a0.H\
         SR.AzureEE.HpcWorkerRole.jobdata\job-10\pipe06.def
       Run Mode = Full
     END
     SOLVER STEP CONTROL:
       PARALLEL ENVIRONMENT:
         Start Method = MSMPI2
         Number of Processes = 256
         Parallel Host List = rd000d3a21b506*256
       END
     END
   END
 END
 

 +--------------------------------------------------------------------+
 |                                                                    |
 |                            Partitioning                            |
 |                                                                    |
 +--------------------------------------------------------------------+




 +--------------------------------------------------------------------+
 |                                                                    |
 |                 ANSYS(R) CFX(R) Partitioner 15.0.7                 |
 |                                                                    |
 | Version 2014.04.10-23.00-131675     Thu Apr 10 23:23:37 GMTDT 2014 |
 |                                                                    |
 |                        Executable Attributes                       |
 |                                                                    |
 |          single-64bit-int32-supfort-optimised-noprof-lcomp         |
 |                                                                    |
 | (C) 2014 ANSYS, Inc.                                               |
 |                                                                    |
 | All rights reserved. Unauthorized use, distribution or duplication |
 | is prohibited. This product is subject to U.S. laws governing      |
 | export and re-export. For full Legal Notice, see documentation.    |
 +--------------------------------------------------------------------+




 +--------------------------------------------------------------------+
 |                  Job Information at Start of Run                   |
 +--------------------------------------------------------------------+

 Run mode:       partitioning run

 +------------------------------+------+--------+----------+----------+
 | Host                         | Mesh |  PID   |     Job Started     |
 |                              | Part |        | DD/MM/YY | hh:mm:ss |
 +------------------------------+------+--------+----------+----------+
 | RD000D3A21B506               |    1 |   3092 | 01/06/15 | 05:59:14 |
 +------------------------------+------+--------+----------+----------+


 +--------------------------------------------------------------------+
 |        Memory Allocated for Run  (Actual usage may be less)        |
 +--------------------------------------------------------------------+

           | Real       | Integer    | Character | Logical  | Double
 ----------+------------+------------+-----------+----------+----------
 Mwords    |      30.99 |      61.02 |      3.39 |     0.12 |     1.20
 Mbytes    |     118.20 |     232.77 |      3.24 |     0.46 |     9.16
 ----------+------------+------------+-----------+----------+----------


 +--------------------------------------------------------------------+
 |                  Host Memory Information (Mbytes)                  |
 +--------------------------------------------------------------------+
 |          Host           |     System     |   Allocated    |   %    |
 +-------------------------+----------------+----------------+--------+
 | RD000D3A21B506          |     57343.55   |       363.83   |   0.63 |
 +-------------------------+----------------+----------------+--------+

 +--------------------------------------------------------------------+
 |                          Mesh Statistics                           |
 +--------------------------------------------------------------------+

 Domain Name : FluidDom

     Total Number of Nodes                                =     1063500

     Total Number of Elements                             =      969853
         Total Number of Prisms                           =        1499
         Total Number of Hexahedrons                      =      968354

     Total Number of Faces                                =      185671

 Domain Name : TubeDom

     Total Number of Nodes                                =       85356

     Total Number of Elements                             =       47720
         Total Number of Hexahedrons                      =       47720

     Total Number of Faces                                =       71690
 
 Global Statistics :

     Global Number of Nodes                               =     1148856

     Global Number of Elements                            =     1017573
         Total Number of Prisms                           =        1499
         Total Number of Hexahedrons                      =     1016074

     Global Number of Faces                               =      257361

 Domain Interface Name : Default Fluid Solid Interface

     Discretization type                                  =         GGI
     Intersection type                                    =      Direct
     Non-overlap area fraction on side 1                  =    9.83E-02
     Non-overlap area fraction on side 2                  =    9.57E-02

 Domain Interface Name : Domain Interface 1

     Discretization type                                  =         GGI
     Intersection type                                    =      Direct
     Non-overlap area fraction on side 1                  =    2.09E-02
     Non-overlap area fraction on side 2                  =    5.72E-02

 Domain Interface Name : SymmetrieFluid

     Discretization type                                  =         GGI
     Intersection type                                    =      Direct
     Non-overlap area fraction on side 1                  =    3.63E-07
     Non-overlap area fraction on side 2                  =    2.99E-07

 Domain Interface Name : SymmetrieSolid

     Discretization type                                  =         1:1
     Intersection type                                    =      Direct

 +--------------------------------------------------------------------+
 |                     Vertex Based Partitioning                      |
 +--------------------------------------------------------------------+

 Partitioning of domain: FluidDom

 - Partitioning tool:       MeTiS multilevel k-way algorithm
 - Number of partitions:           256
 - Number of graph-nodes:      1063500
 - Number of graph-edges:      7474112

 Partitioning of domain: TubeDom

 - Partitioning tool:       MeTiS multilevel k-way algorithm
 - Number of partitions:           256
 - Number of graph-nodes:        81237
 - Number of graph-edges:       421268

 +--------------------------------------------------------------------+
 |                      Partitioning Information                      |
 +--------------------------------------------------------------------+

 Partitioning information for domain: FluidDom

        +------------------+------------------------+-----------------+
        |     Elements     |        Vertices        |     Faces       |
 +------+------------------+------------------------+-----------------+
 | Part |   Number     %   |   Number     %   %Ovlp |  Number     %   |
 +------+------------------+------------------------+-----------------+
 | Full |    969853        |   1063500              |   185671        |
 +------+------------------+------------------------+-----------------+
 |    1 |      4653    0.4 |      5925    0.4  29.0 |      999    0.3 |
 |    2 |      4680    0.4 |      5946    0.4  27.5 |     1072    0.3 |
 |    3 |      4477    0.4 |      5859    0.4  31.3 |     1099    0.3 |
 |    4 |      5334    0.4 |      6882    0.4  36.2 |      909    0.3 |
 |    5 |      3613    0.3 |      5097    0.3  30.0 |     1735    0.5 |
 |    6 |      5093    0.4 |      6660    0.4  34.2 |     1156    0.4 |
 |    7 |      4151    0.3 |      5598    0.3  31.7 |     1441    0.5 |
 |    8 |      4563    0.4 |      6037    0.4  31.3 |     1374    0.4 |
 |    9 |      4856    0.4 |      6198    0.4  31.6 |      784    0.2 |
 |   10 |      4440    0.4 |      6175    0.4  36.9 |     1391    0.4 |
 |   11 |      5168    0.4 |      6737    0.4  36.4 |      934    0.3 |
 |   12 |      5270    0.4 |      6827    0.4  34.6 |     1080    0.3 |
 |   13 |      4575    0.4 |      6088    0.4  32.9 |     1227    0.4 |
 |   14 |      5214    0.4 |      6753    0.4  34.8 |      957    0.3 |
 |   15 |      5077    0.4 |      6555    0.4  32.9 |     1065    0.3 |
 |   16 |      3903    0.3 |      5408    0.3  31.9 |     1637    0.5 |
 |   17 |      4235    0.3 |      5751    0.4  31.4 |     1559    0.5 |
 |   18 |      5215    0.4 |      6696    0.4  33.5 |      980    0.3 |
 |   19 |      5300    0.4 |      7054    0.4  38.2 |     1166    0.4 |
 |   20 |      3906    0.3 |      5316    0.3  30.2 |     1514    0.5 |
 |   21 |      5177    0.4 |      6706    0.4  36.0 |      922    0.3 |
 |   22 |      4243    0.3 |      5498    0.3  27.9 |      983    0.3 |
 |   23 |      4826    0.4 |      6151    0.4  29.8 |     1013    0.3 |
 |   24 |      4868    0.4 |      6310    0.4  32.0 |     1026    0.3 |
 |   25 |      4464    0.4 |      6097    0.4  35.6 |     1266    0.4 |
 |   26 |      5277    0.4 |      6821    0.4  35.2 |      914    0.3 |
 |   27 |      3765    0.3 |      5284    0.3  29.9 |     1794    0.6 |
 |   28 |      5126    0.4 |      6681    0.4  34.1 |     1118    0.3 |
 |   29 |      4528    0.4 |      5915    0.4  30.5 |     1121    0.4 |
 |   30 |      4955    0.4 |      6352    0.4  31.3 |     1044    0.3 |
 |   31 |      4809    0.4 |      6349    0.4  33.4 |     1286    0.4 |
 |   32 |      5128    0.4 |      6594    0.4  32.8 |     1072    0.3 |
 |   33 |      4380    0.4 |      5679    0.4  24.9 |     1356    0.4 |
 |   34 |      5206    0.4 |      6875    0.4  35.1 |     1164    0.4 |
 |   35 |      4724    0.4 |      6084    0.4  29.5 |     1104    0.3 |
 |   36 |      4653    0.4 |      5973    0.4  28.5 |     1143    0.4 |
 |   37 |      5185    0.4 |      6741    0.4  35.0 |     1028    0.3 |
 |   38 |      3881    0.3 |      5317    0.3  31.1 |     1556    0.5 |
 |   39 |      4659    0.4 |      6148    0.4  34.2 |     1211    0.4 |
 |   40 |      3834    0.3 |      5118    0.3  25.0 |     1493    0.5 |
 |   41 |      4784    0.4 |      6032    0.4  29.7 |      782    0.2 |
 |   42 |      5063    0.4 |      6744    0.4  36.4 |     1169    0.4 |
 |   43 |      4870    0.4 |      6512    0.4  35.2 |     1211    0.4 |
 |   44 |      5169    0.4 |      6738    0.4  34.8 |     1066    0.3 |
 |   45 |      5234    0.4 |      6862    0.4  37.6 |      934    0.3 |
 |   46 |      4746    0.4 |      6209    0.4  31.3 |     1150    0.4 |
 |   47 |      4732    0.4 |      6234    0.4  34.3 |     1158    0.4 |
 |   48 |      3734    0.3 |      5229    0.3  31.5 |     1667    0.5 |
 |   49 |      4990    0.4 |      6656    0.4  35.5 |     1189    0.4 |
 |   50 |      4845    0.4 |      6451    0.4  35.1 |     1138    0.4 |
 |   51 |      4829    0.4 |      6109    0.4  30.5 |      778    0.2 |
 |   52 |      4414    0.4 |      5977    0.4  33.4 |     1273    0.4 |
 |   53 |      3890    0.3 |      5297    0.3  30.0 |     1508    0.5 |
 |   54 |      5322    0.4 |      6781    0.4  33.2 |      955    0.3 |
 |   55 |      5515    0.5 |      7307    0.5  38.9 |     1098    0.3 |
 |   56 |      4177    0.3 |      5583    0.3  31.3 |     1369    0.4 |
 |   57 |      4561    0.4 |      6139    0.4  35.3 |     1199    0.4 |
 |   58 |      5091    0.4 |      6525    0.4  33.4 |      901    0.3 |
 |   59 |      4954    0.4 |      6298    0.4  32.0 |      772    0.2 |
 |   60 |      4563    0.4 |      6158    0.4  35.4 |     1178    0.4 |
 |   61 |      3992    0.3 |      5410    0.3  30.4 |     1476    0.5 |
 |   62 |      5245    0.4 |      6775    0.4  34.3 |     1014    0.3 |
 |   63 |      3870    0.3 |      5421    0.3  31.6 |     1735    0.5 |
 |   64 |      5215    0.4 |      6782    0.4  34.7 |     1116    0.3 |
 |   65 |      3709    0.3 |      5191    0.3  30.6 |     1682    0.5 |
 |   66 |      5083    0.4 |      6672    0.4  34.6 |     1180    0.4 |
 |   67 |      4824    0.4 |      6067    0.4  29.4 |      822    0.3 |
 |   68 |      4758    0.4 |      6481    0.4  38.1 |     1233    0.4 |
 |   69 |      4649    0.4 |      6035    0.4  31.4 |     1079    0.3 |
 |   70 |      4803    0.4 |      6329    0.4  34.6 |     1073    0.3 |
 |   71 |      4638    0.4 |      6046    0.4  32.0 |     1068    0.3 |
 |   72 |      5199    0.4 |      6705    0.4  33.6 |     1051    0.3 |
 |   73 |      4699    0.4 |      6192    0.4  34.0 |     1063    0.3 |
 |   74 |      4782    0.4 |      6418    0.4  36.5 |     1142    0.4 |
 |   75 |      5312    0.4 |      6863    0.4  34.5 |     1029    0.3 |
 |   76 |      4899    0.4 |      6590    0.4  36.1 |     1389    0.4 |
 |   77 |      4437    0.4 |      5909    0.4  30.9 |     1417    0.4 |
 |   78 |      4417    0.4 |      5869    0.4  30.6 |     1410    0.4 |
 |   79 |      5020    0.4 |      6626    0.4  36.6 |     1042    0.3 |
 |   80 |      4738    0.4 |      6269    0.4  34.7 |     1046    0.3 |
 |   81 |      4826    0.4 |      6317    0.4  34.3 |     1131    0.4 |
 |   82 |      3917    0.3 |      5485    0.3  32.9 |     1644    0.5 |
 |   83 |      3789    0.3 |      5272    0.3  29.6 |     1709    0.5 |
 |   84 |      5235    0.4 |      6710    0.4  33.2 |     1025    0.3 |
 |   85 |      5172    0.4 |      6734    0.4  36.5 |      964    0.3 |
 |   86 |      4547    0.4 |      5835    0.4  28.6 |     1085    0.3 |
 |   87 |      4724    0.4 |      5999    0.4  29.3 |      979    0.3 |
 |   88 |      4975    0.4 |      6510    0.4  33.4 |     1114    0.3 |
 |   89 |      4572    0.4 |      5884    0.4  28.6 |     1099    0.3 |
 |   90 |      4859    0.4 |      6453    0.4  34.1 |     1220    0.4 |
 |   91 |      5283    0.4 |      6651    0.4  32.3 |      840    0.3 |
 |   92 |      4445    0.4 |      5979    0.4  34.4 |     1350    0.4 |
 |   93 |      4668    0.4 |      5961    0.4  28.9 |     1071    0.3 |
 |   94 |      4667    0.4 |      6017    0.4  29.0 |     1113    0.3 |
 |   95 |      4671    0.4 |      6156    0.4  34.0 |     1173    0.4 |
 |   96 |      5059    0.4 |      6810    0.4  38.9 |     1136    0.4 |
 |   97 |      5318    0.4 |      6849    0.4  34.2 |      997    0.3 |
 |   98 |      4136    0.3 |      5570    0.3  31.7 |     1438    0.4 |
 |   99 |      4788    0.4 |      6561    0.4  37.3 |     1295    0.4 |
 |  100 |      4749    0.4 |      6151    0.4  32.2 |      926    0.3 |
 |  101 |      5121    0.4 |      6752    0.4  36.3 |     1076    0.3 |
 |  102 |      4280    0.4 |      5762    0.4  31.7 |     1450    0.5 |
 |  103 |      4730    0.4 |      6113    0.4  30.1 |     1088    0.3 |
 |  104 |      4634    0.4 |      5933    0.4  30.3 |      999    0.3 |
 |  105 |      5421    0.4 |      6951    0.4  34.7 |      971    0.3 |
 |  106 |      4301    0.4 |      5759    0.4  32.4 |     1366    0.4 |
 |  107 |      3768    0.3 |      5228    0.3  30.3 |     1634    0.5 |
 |  108 |      4219    0.3 |      5668    0.4  32.2 |     1408    0.4 |
 |  109 |      4895    0.4 |      6305    0.4  31.6 |     1069    0.3 |
 |  110 |      4676    0.4 |      6031    0.4  29.5 |     1105    0.3 |
 |  111 |      4595    0.4 |      6000    0.4  31.5 |     1108    0.3 |
 |  112 |      5196    0.4 |      6693    0.4  33.5 |     1041    0.3 |
 |  113 |      4779    0.4 |      6393    0.4  35.4 |     1187    0.4 |
 |  114 |      4562    0.4 |      6081    0.4  33.7 |     1126    0.4 |
 |  115 |      5436    0.4 |      7094    0.4  37.8 |      914    0.3 |
 |  116 |      4116    0.3 |      5613    0.3  32.8 |     1463    0.5 |
 |  117 |      4909    0.4 |      6299    0.4  30.6 |     1044    0.3 |
 |  118 |      4637    0.4 |      6054    0.4  32.6 |     1093    0.3 |
 |  119 |      4373    0.4 |      5967    0.4  34.8 |     1456    0.5 |
 |  120 |      5188    0.4 |      6757    0.4  34.5 |     1103    0.3 |
 |  121 |      3920    0.3 |      5348    0.3  29.8 |     1544    0.5 |
 |  122 |      3877    0.3 |      5394    0.3  31.7 |     1653    0.5 |
 |  123 |      5266    0.4 |      6799    0.4  34.2 |     1011    0.3 |
 |  124 |      5240    0.4 |      6779    0.4  34.3 |     1074    0.3 |
 |  125 |      5266    0.4 |      6745    0.4  33.3 |      991    0.3 |
 |  126 |      5005    0.4 |      6601    0.4  35.8 |     1061    0.3 |
 |  127 |      4921    0.4 |      6385    0.4  32.0 |     1097    0.3 |
 |  128 |      4524    0.4 |      6033    0.4  33.5 |     1148    0.4 |
 |  129 |      4564    0.4 |      6261    0.4  35.4 |     1667    0.5 |
 |  130 |      3765    0.3 |      5430    0.3  34.5 |     1910    0.6 |
 |  131 |      5269    0.4 |      6880    0.4  35.8 |     1190    0.4 |
 |  132 |      5287    0.4 |      6882    0.4  35.2 |     1190    0.4 |
 |  133 |      4804    0.4 |      6395    0.4  36.0 |     1193    0.4 |
 |  134 |      4693    0.4 |      6434    0.4  38.2 |     1337    0.4 |
 |  135 |      4824    0.4 |      6320    0.4  34.4 |     1121    0.4 |
 |  136 |      5234    0.4 |      7072    0.4  39.5 |     1277    0.4 |
 |  137 |      4727    0.4 |      6226    0.4  34.1 |     1191    0.4 |
 |  138 |      4680    0.4 |      6192    0.4  34.4 |     1237    0.4 |
 |  139 |      4608    0.4 |      6168    0.4  35.0 |     1253    0.4 |
 |  140 |      4875    0.4 |      6380    0.4  34.0 |     1177    0.4 |
 |  141 |      5279    0.4 |      6863    0.4  35.2 |     1190    0.4 |
 |  142 |      5238    0.4 |      6785    0.4  35.1 |     1115    0.3 |
 |  143 |      3972    0.3 |      5604    0.3  33.8 |     1826    0.6 |
 |  144 |      5112    0.4 |      6720    0.4  36.0 |     1203    0.4 |
 |  145 |      4970    0.4 |      6841    0.4  40.5 |     1351    0.4 |
 |  146 |      4892    0.4 |      6245    0.4  32.1 |      931    0.3 |
 |  147 |      4719    0.4 |      6176    0.4  33.3 |     1190    0.4 |
 |  148 |      4693    0.4 |      6226    0.4  34.3 |     1271    0.4 |
 |  149 |      5292    0.4 |      6905    0.4  35.5 |     1186    0.4 |
 |  150 |      4078    0.3 |      5691    0.4  33.4 |     1773    0.6 |
 |  151 |      4490    0.4 |      6205    0.4  35.6 |     1687    0.5 |
 |  152 |      5316    0.4 |      6929    0.4  35.9 |     1151    0.4 |
 |  153 |      4795    0.4 |      6450    0.4  36.4 |     1306    0.4 |
 |  154 |      4715    0.4 |      6246    0.4  34.7 |     1221    0.4 |
 |  155 |      5516    0.5 |      7146    0.4  36.5 |     1086    0.3 |
 |  156 |      4265    0.3 |      5845    0.4  33.0 |     1673    0.5 |
 |  157 |      5271    0.4 |      6894    0.4  36.6 |     1135    0.4 |
 |  158 |      3995    0.3 |      5572    0.3  34.0 |     1698    0.5 |
 |  159 |      4882    0.4 |      6416    0.4  35.1 |     1149    0.4 |
 |  160 |      4786    0.4 |      6433    0.4  37.0 |     1267    0.4 |
 |  161 |      4483    0.4 |      6147    0.4  34.8 |     1639    0.5 |
 |  162 |      5208    0.4 |      6870    0.4  38.1 |     1106    0.3 |
 |  163 |      5444    0.4 |      7092    0.4  36.4 |     1123    0.4 |
 |  164 |      4560    0.4 |      6265    0.4  37.7 |     1536    0.5 |
 |  165 |      4861    0.4 |      6499    0.4  35.2 |     1300    0.4 |
 |  166 |      5110    0.4 |      6710    0.4  35.0 |     1202    0.4 |
 |  167 |      4877    0.4 |      6389    0.4  32.9 |     1250    0.4 |
 |  168 |      4605    0.4 |      6011    0.4  31.8 |     1214    0.4 |
 |  169 |      5202    0.4 |      6985    0.4  39.9 |     1187    0.4 |
 |  170 |      4666    0.4 |      6107    0.4  33.1 |     1166    0.4 |
 |  171 |      4706    0.4 |      6183    0.4  33.9 |     1181    0.4 |
 |  172 |      4767    0.4 |      6208    0.4  31.5 |     1239    0.4 |
 |  173 |      3954    0.3 |      5579    0.3  35.0 |     1755    0.5 |
 |  174 |      4893    0.4 |      6559    0.4  37.1 |     1359    0.4 |
 |  175 |      5426    0.4 |      7143    0.4  37.6 |     1188    0.4 |
 |  176 |      4579    0.4 |      6151    0.4  35.5 |     1426    0.4 |
 |  177 |      5303    0.4 |      6898    0.4  35.4 |     1166    0.4 |
 |  178 |      3983    0.3 |      5594    0.3  34.3 |     1750    0.5 |
 |  179 |      5151    0.4 |      6795    0.4  36.2 |     1292    0.4 |
 |  180 |      4057    0.3 |      5802    0.4  36.4 |     1834    0.6 |
 |  181 |      5069    0.4 |      6664    0.4  36.5 |     1063    0.3 |
 |  182 |      4817    0.4 |      6565    0.4  36.4 |     1430    0.4 |
 |  183 |      4738    0.4 |      6284    0.4  34.1 |     1272    0.4 |
 |  184 |      5288    0.4 |      7186    0.4  41.1 |     1260    0.4 |
 |  185 |      4517    0.4 |      6243    0.4  36.9 |     1449    0.5 |
 |  186 |      4978    0.4 |      6416    0.4  33.8 |      926    0.3 |
 |  187 |      5383    0.4 |      7105    0.4  37.4 |     1214    0.4 |
 |  188 |      5331    0.4 |      6952    0.4  36.7 |     1164    0.4 |
 |  189 |      5003    0.4 |      6586    0.4  34.4 |     1251    0.4 |
 |  190 |      4524    0.4 |      5968    0.4  27.8 |     1530    0.5 |
 |  191 |      3856    0.3 |      5538    0.3  33.9 |     1920    0.6 |
 |  192 |      4852    0.4 |      6391    0.4  31.7 |     1464    0.5 |
 |  193 |      3931    0.3 |      5541    0.3  34.6 |     1746    0.5 |
 |  194 |      4207    0.3 |      5761    0.4  33.4 |     1605    0.5 |
 |  195 |      5386    0.4 |      7030    0.4  36.2 |     1178    0.4 |
 |  196 |      5319    0.4 |      7023    0.4  37.2 |     1201    0.4 |
 |  197 |      4856    0.4 |      6338    0.4  32.1 |     1271    0.4 |
 |  198 |      4632    0.4 |      6083    0.4  33.0 |     1223    0.4 |
 |  199 |      4497    0.4 |      5485    0.3  21.2 |      854    0.3 |
 |  200 |      5157    0.4 |      6761    0.4  36.7 |     1103    0.3 |
 |  201 |      5393    0.4 |      7043    0.4  36.2 |     1174    0.4 |
 |  202 |      4517    0.4 |      6196    0.4  36.0 |     1599    0.5 |
 |  203 |      4717    0.4 |      6174    0.4  32.5 |     1216    0.4 |
 |  204 |      4761    0.4 |      6189    0.4  31.9 |     1228    0.4 |
 |  205 |      4860    0.4 |      6515    0.4  37.3 |     1232    0.4 |
 |  206 |      4894    0.4 |      6414    0.4  32.9 |     1251    0.4 |
 |  207 |      5305    0.4 |      6910    0.4  35.7 |     1142    0.4 |
 |  208 |      4003    0.3 |      5567    0.3  33.8 |     1689    0.5 |
 |  209 |      4458    0.4 |      6118    0.4  35.7 |     1591    0.5 |
 |  210 |      5488    0.5 |      7203    0.4  37.7 |     1140    0.4 |
 |  211 |      4616    0.4 |      6258    0.4  35.9 |     1484    0.5 |
 |  212 |      4269    0.4 |      5851    0.4  34.4 |     1588    0.5 |
 |  213 |      4908    0.4 |      6523    0.4  35.2 |     1273    0.4 |
 |  214 |      4687    0.4 |      6076    0.4  32.3 |     1136    0.4 |
 |  215 |      4847    0.4 |      6317    0.4  32.5 |     1202    0.4 |
 |  216 |      5318    0.4 |      7037    0.4  37.3 |     1206    0.4 |
 |  217 |      5150    0.4 |      6864    0.4  37.9 |     1255    0.4 |
 |  218 |      5321    0.4 |      7047    0.4  38.5 |     1150    0.4 |
 |  219 |      4765    0.4 |      6174    0.4  30.5 |     1237    0.4 |
 |  220 |      4844    0.4 |      6281    0.4  31.5 |     1201    0.4 |
 |  221 |      3869    0.3 |      5418    0.3  31.8 |     1793    0.6 |
 |  222 |      4945    0.4 |      6645    0.4  38.0 |     1308    0.4 |
 |  223 |      5399    0.4 |      7162    0.4  39.9 |     1051    0.3 |
 |  224 |      4600    0.4 |      6088    0.4  32.9 |     1286    0.4 |
 |  225 |      4947    0.4 |      6514    0.4  33.9 |     1252    0.4 |
 |  226 |      4837    0.4 |      6504    0.4  35.2 |     1363    0.4 |
 |  227 |      5012    0.4 |      6722    0.4  38.0 |     1236    0.4 |
 |  228 |      4883    0.4 |      6529    0.4  36.5 |     1232    0.4 |
 |  229 |      4698    0.4 |      6346    0.4  34.9 |     1527    0.5 |
 |  230 |      5437    0.4 |      7223    0.4  38.4 |     1216    0.4 |
 |  231 |      5335    0.4 |      7003    0.4  36.8 |     1199    0.4 |
 |  232 |      3864    0.3 |      5456    0.3  34.1 |     1766    0.6 |
 |  233 |      4221    0.3 |      5816    0.4  34.6 |     1621    0.5 |
 |  234 |      5495    0.5 |      7149    0.4  36.6 |     1130    0.4 |
 |  235 |      4365    0.4 |      5951    0.4  33.7 |     1620    0.5 |
 |  236 |      5370    0.4 |      7112    0.4  37.7 |     1211    0.4 |
 |  237 |      4939    0.4 |      6427    0.4  33.7 |     1168    0.4 |
 |  238 |      4917    0.4 |      6461    0.4  34.8 |     1156    0.4 |
 |  239 |      4677    0.4 |      6265    0.4  35.7 |     1279    0.4 |
 |  240 |      4722    0.4 |      6225    0.4  34.1 |     1186    0.4 |
 |  241 |      5364    0.4 |      6944    0.4  35.6 |     1109    0.3 |
 |  242 |      4098    0.3 |      5783    0.4  35.7 |     1769    0.6 |
 |  243 |      3745    0.3 |      5233    0.3  31.4 |     1732    0.5 |
 |  244 |      5086    0.4 |      6775    0.4  37.9 |     1237    0.4 |
 |  245 |      5173    0.4 |      6878    0.4  37.2 |     1191    0.4 |
 |  246 |      5190    0.4 |      6906    0.4  37.0 |     1267    0.4 |
 |  247 |      4788    0.4 |      6427    0.4  35.6 |     1332    0.4 |
 |  248 |      4946    0.4 |      6534    0.4  34.3 |     1295    0.4 |
 |  249 |      5127    0.4 |      6695    0.4  36.5 |     1107    0.3 |
 |  250 |      4775    0.4 |      6340    0.4  33.5 |     1329    0.4 |
 |  251 |      4678    0.4 |      6264    0.4  35.7 |     1292    0.4 |
 |  252 |      4808    0.4 |      6241    0.4  32.2 |     1160    0.4 |
 |  253 |      5132    0.4 |      6749    0.4  36.4 |     1190    0.4 |
 |  254 |      4097    0.3 |      5757    0.4  35.9 |     1707    0.5 |
 |  255 |      5402    0.4 |      7026    0.4  35.9 |     1152    0.4 |
 |  256 |      4140    0.3 |      5731    0.4  33.7 |     1685    0.5 |
 +------+------------------+------------------------+-----------------+
 | Min  |      3613    0.3 |      5097    0.3  22.9 |      772    0.2 |
 |(part)|           (    5)|           (    5   199)|          (   59)|
 +------+------------------+------------------------+-----------------+
 | Max  |      5516    0.5 |      7307    0.5  40.4 |     1920    0.6 |
 |(part)|           (  155)|           (   55   184)|          (  191)|
 +------+------------------+------------------------+-----------------+
 | Ave  |      4763    0.4 |      6309    0.4  34.1 |     1251    0.4 |
 +------+------------------+------------------------+-----------------+
 | Sum  |   1219422  100.0 |   1614982  100.0  34.1 |   320181  100.0 |
 +------+------------------+------------------------+-----------------+

 Partitioning information for domain: TubeDom

        +------------------+------------------------+-----------------+
        |     Elements     |        Vertices        |     Faces       |
 +------+------------------+------------------------+-----------------+
 | Part |   Number     %   |   Number     %   %Ovlp |  Number     %   |
 +------+------------------+------------------------+-----------------+
 | Full |     47720        |     85356              |    71690        |
 +------+------------------+------------------------+-----------------+
 |    1 |       697    0.7 |      1475    0.7  76.6 |      775    0.6 |
 |    2 |       821    0.8 |      1689    0.8  79.6 |      864    0.7 |
 |    3 |       727    0.7 |      1524    0.7  77.5 |      787    0.6 |
 |    4 |       272    0.3 |       510    0.2  30.8 |      300    0.2 |
 |    5 |       260    0.3 |       513    0.2  32.7 |      308    0.2 |
 |    6 |       284    0.3 |       513    0.2  32.7 |      284    0.2 |
 |    7 |       290    0.3 |       522    0.2  32.2 |      290    0.2 |
 |    8 |       262    0.3 |       501    0.2  31.1 |      298    0.2 |
 |    9 |       864    0.9 |      1840    0.8  81.4 |      904    0.7 |
 |   10 |       777    0.8 |      1689    0.8  79.6 |      854    0.6 |
 |   11 |       403    0.4 |       830    0.4  56.1 |      442    0.3 |
 |   12 |       288    0.3 |       519    0.2  31.0 |      291    0.2 |
 |   13 |       807    0.8 |      1696    0.8  79.5 |      869    0.7 |
 |   14 |       642    0.6 |      1358    0.6  73.9 |      686    0.5 |
 |   15 |       268    0.3 |       519    0.2  30.1 |      316    0.2 |
 |   16 |       288    0.3 |       510    0.2  29.4 |      288    0.2 |
 |   17 |       295    0.3 |       524    0.2  30.3 |      294    0.2 |
 |   18 |       266    0.3 |       528    0.2  31.8 |      322    0.2 |
 |   19 |       285    0.3 |       522    0.2  34.7 |      285    0.2 |
 |   20 |       288    0.3 |       546    0.2  33.0 |      314    0.2 |
 |   21 |       504    0.5 |      1027    0.5  65.2 |      532    0.4 |
 |   22 |       764    0.8 |      1604    0.7  77.6 |      843    0.6 |
 |   23 |       786    0.8 |      1598    0.7  78.5 |      818    0.6 |
 |   24 |       580    0.6 |      1195    0.5  70.2 |      642    0.5 |
 |   25 |       729    0.7 |      1589    0.7  77.4 |      820    0.6 |
 |   26 |       660    0.7 |      1357    0.6  74.6 |      660    0.5 |
 |   27 |       292    0.3 |       528    0.2  33.0 |      292    0.2 |
 |   28 |       278    0.3 |       543    0.2  33.1 |      322    0.2 |
 |   29 |       742    0.7 |      1592    0.7  78.1 |      837    0.6 |
 |   30 |       728    0.7 |      1494    0.7  77.0 |      757    0.6 |
 |   31 |       262    0.3 |       504    0.2  31.0 |      302    0.2 |
 |   32 |       292    0.3 |       525    0.2  32.0 |      292    0.2 |
 |   33 |       829    0.8 |      1701    0.8  78.7 |      899    0.7 |
 |   34 |       359    0.4 |       747    0.3  51.3 |      403    0.3 |
 |   35 |       799    0.8 |      1690    0.8  79.8 |      879    0.7 |
 |   36 |       800    0.8 |      1653    0.8  78.8 |      852    0.6 |
 |   37 |       277    0.3 |       536    0.2  33.6 |      313    0.2 |
 |   38 |       298    0.3 |       531    0.2  31.3 |      295    0.2 |
 |   39 |       293    0.3 |       530    0.2  32.8 |      293    0.2 |
 |   40 |       268    0.3 |       528    0.2  31.8 |      320    0.2 |
 |   41 |       891    0.9 |      1874    0.9  80.7 |      918    0.7 |
 |   42 |       577    0.6 |      1238    0.6  72.5 |      626    0.5 |
 |   43 |       641    0.6 |      1354    0.6  73.9 |      689    0.5 |
 |   44 |       272    0.3 |       528    0.2  31.8 |      316    0.2 |
 |   45 |       274    0.3 |       519    0.2  32.9 |      301    0.2 |
 |   46 |       908    0.9 |      1915    0.9  82.1 |      978    0.7 |
 |   47 |       264    0.3 |       510    0.2  29.4 |      312    0.2 |
 |   48 |       292    0.3 |       519    0.2  30.1 |      292    0.2 |
 |   49 |       667    0.7 |      1423    0.7  75.8 |      718    0.5 |
 |   50 |       658    0.6 |      1410    0.6  74.5 |      725    0.5 |
 |   51 |       877    0.9 |      1827    0.8  81.1 |      877    0.7 |
 |   52 |       742    0.7 |      1647    0.8  79.1 |      860    0.6 |
 |   53 |       270    0.3 |       507    0.2  29.6 |      302    0.2 |
 |   54 |       274    0.3 |       510    0.2  32.7 |      290    0.2 |
 |   55 |       292    0.3 |       522    0.2  31.2 |      291    0.2 |
 |   56 |       266    0.3 |       516    0.2  31.4 |      310    0.2 |
 |   57 |       737    0.7 |      1571    0.7  77.3 |      798    0.6 |
 |   58 |       665    0.7 |      1410    0.6  74.5 |      717    0.5 |
 |   59 |       810    0.8 |      1709    0.8  78.8 |      846    0.6 |
 |   60 |       681    0.7 |      1440    0.7  75.8 |      731    0.6 |
 |   61 |       258    0.3 |       501    0.2  31.1 |      302    0.2 |
 |   62 |       290    0.3 |       519    0.2  31.2 |      290    0.2 |
 |   63 |       193    0.2 |       478    0.2  34.7 |      357    0.3 |
 |   64 |       203    0.2 |       448    0.2  32.6 |      322    0.2 |
 |   65 |       270    0.3 |       516    0.2  31.4 |      306    0.2 |
 |   66 |       290    0.3 |       519    0.2  32.4 |      284    0.2 |
 |   67 |       881    0.9 |      1850    0.8  81.7 |      901    0.7 |
 |   68 |       458    0.5 |      1012    0.5  64.5 |      540    0.4 |
 |   69 |       802    0.8 |      1705    0.8  78.7 |      882    0.7 |
 |   70 |       625    0.6 |      1366    0.6  73.7 |      714    0.5 |
 |   71 |       585    0.6 |      1248    0.6  71.6 |      666    0.5 |
 |   72 |       282    0.3 |       510    0.2  32.7 |      282    0.2 |
 |   73 |       537    0.5 |      1170    0.5  70.7 |      617    0.5 |
 |   74 |       659    0.7 |      1390    0.6  74.1 |      697    0.5 |
 |   75 |       276    0.3 |       525    0.2  32.6 |      305    0.2 |
 |   76 |       278    0.3 |       519    0.2  32.4 |      298    0.2 |
 |   77 |       272    0.3 |       531    0.2  31.6 |      320    0.2 |
 |   78 |       282    0.3 |       507    0.2  32.0 |      282    0.2 |
 |   79 |       468    0.5 |       972    0.4  63.6 |      500    0.4 |
 |   80 |       673    0.7 |      1430    0.7  74.8 |      724    0.5 |
 |   81 |       288    0.3 |       510    0.2  29.4 |      288    0.2 |
 |   82 |       260    0.3 |       504    0.2  31.0 |      304    0.2 |
 |   83 |       272    0.3 |       522    0.2  30.3 |      315    0.2 |
 |   84 |       287    0.3 |       518    0.2  32.4 |      287    0.2 |
 |   85 |       288    0.3 |       534    0.2  33.7 |      300    0.2 |
 |   86 |       809    0.8 |      1706    0.8  79.2 |      891    0.7 |
 |   87 |       809    0.8 |      1709    0.8  78.8 |      884    0.7 |
 |   88 |       644    0.6 |      1327    0.6  73.1 |      679    0.5 |
 |   89 |       753    0.7 |      1580    0.7  77.2 |      834    0.6 |
 |   90 |       698    0.7 |      1441    0.7  74.7 |      741    0.6 |
 |   91 |       240    0.2 |       477    0.2  25.2 |      312    0.2 |
 |   92 |       266    0.3 |       477    0.2  25.2 |      288    0.2 |
 |   93 |       770    0.8 |      1576    0.7  77.5 |      808    0.6 |
 |   94 |       750    0.7 |      1583    0.7  78.2 |      837    0.6 |
 |   95 |       288    0.3 |       513    0.2  31.8 |      281    0.2 |
 |   96 |       260    0.3 |       507    0.2  33.1 |      298    0.2 |
 |   97 |       270    0.3 |       519    0.2  31.2 |      310    0.2 |
 |   98 |       290    0.3 |       519    0.2  31.2 |      290    0.2 |
 |   99 |       588    0.6 |      1253    0.6  71.0 |      644    0.5 |
 |  100 |       661    0.7 |      1426    0.7  75.2 |      728    0.5 |
 |  101 |       347    0.3 |       724    0.3  50.3 |      399    0.3 |
 |  102 |       279    0.3 |       532    0.2  34.0 |      305    0.2 |
 |  103 |       611    0.6 |      1287    0.6  71.6 |      686    0.5 |
 |  104 |       667    0.7 |      1358    0.6  73.4 |      696    0.5 |
 |  105 |       294    0.3 |       525    0.2  30.9 |      294    0.2 |
 |  106 |       254    0.3 |       498    0.2  30.7 |      305    0.2 |
 |  107 |       270    0.3 |       537    0.2  36.7 |      308    0.2 |
 |  108 |       294    0.3 |       525    0.2  31.0 |      293    0.2 |
 |  109 |       589    0.6 |      1213    0.6  71.6 |      619    0.5 |
 |  110 |       616    0.6 |      1308    0.6  73.7 |      694    0.5 |
 |  111 |       595    0.6 |      1261    0.6  72.6 |      670    0.5 |
 |  112 |       280    0.3 |       510    0.2  32.5 |      284    0.2 |
 |  113 |       576    0.6 |      1213    0.6  70.1 |      621    0.5 |
 |  114 |       576    0.6 |      1268    0.6  72.6 |      661    0.5 |
 |  115 |       476    0.5 |       951    0.4  61.7 |      476    0.4 |
 |  116 |       256    0.3 |       498    0.2  30.5 |      301    0.2 |
 |  117 |       594    0.6 |      1257    0.6  71.1 |      671    0.5 |
 |  118 |       601    0.6 |      1227    0.6  70.4 |      634    0.5 |
 |  119 |       278    0.3 |       510    0.2  31.8 |      290    0.2 |
 |  120 |       282    0.3 |       534    0.2  32.6 |      310    0.2 |
 |  121 |       268    0.3 |       522    0.2  33.5 |      307    0.2 |
 |  122 |       285    0.3 |       521    0.2  34.4 |      285    0.2 |
 |  123 |       270    0.3 |       540    0.2  34.6 |      321    0.2 |
 |  124 |       288    0.3 |       519    0.2  32.4 |      288    0.2 |
 |  125 |       274    0.3 |       519    0.2  30.1 |      310    0.2 |
 |  126 |       577    0.6 |      1201    0.5  70.3 |      615    0.5 |
 |  127 |       660    0.7 |      1361    0.6  74.7 |      690    0.5 |
 |  128 |       671    0.7 |      1465    0.7  76.0 |      752    0.6 |
 |  129 |       173    0.2 |       410    0.2  21.5 |      366    0.3 |
 |  130 |       172    0.2 |       402    0.2  19.9 |      362    0.3 |
 |  131 |       170    0.2 |       412    0.2  23.3 |      364    0.3 |
 |  132 |       172    0.2 |       402    0.2  19.9 |      362    0.3 |
 |  133 |       533    0.5 |      1236    0.6  74.3 |      755    0.6 |
 |  134 |       511    0.5 |      1224    0.6  75.0 |      742    0.6 |
 |  135 |       548    0.5 |      1264    0.6  75.6 |      765    0.6 |
 |  136 |       353    0.3 |       858    0.4  64.1 |      564    0.4 |
 |  137 |       465    0.5 |      1066    0.5  71.1 |      680    0.5 |
 |  138 |       492    0.5 |      1132    0.5  71.6 |      721    0.5 |
 |  139 |       504    0.5 |      1178    0.5  73.3 |      741    0.6 |
 |  140 |       481    0.5 |      1104    0.5  71.9 |      696    0.5 |
 |  141 |       175    0.2 |       410    0.2  21.5 |      366    0.3 |
 |  142 |       163    0.2 |       390    0.2  21.5 |      348    0.3 |
 |  143 |       174    0.2 |       408    0.2  21.8 |      364    0.3 |
 |  144 |       166    0.2 |       402    0.2  24.1 |      352    0.3 |
 |  145 |       283    0.3 |       730    0.3  56.7 |      515    0.4 |
 |  146 |       584    0.6 |      1318    0.6  76.3 |      784    0.6 |
 |  147 |       498    0.5 |      1142    0.5  72.2 |      724    0.5 |
 |  148 |       483    0.5 |      1118    0.5  71.0 |      719    0.5 |
 |  149 |       169    0.2 |       398    0.2  21.1 |      356    0.3 |
 |  150 |       173    0.2 |       406    0.2  20.7 |      364    0.3 |
 |  151 |       173    0.2 |       408    0.2  21.6 |      364    0.3 |
 |  152 |       164    0.2 |       394    0.2  22.3 |      350    0.3 |
 |  153 |       431    0.4 |      1012    0.5  68.4 |      659    0.5 |
 |  154 |       506    0.5 |      1168    0.5  72.8 |      734    0.6 |
 |  155 |       167    0.2 |       394    0.2  22.3 |      350    0.3 |
 |  156 |       170    0.2 |       400    0.2  21.0 |      358    0.3 |
 |  157 |       169    0.2 |       400    0.2  20.0 |      360    0.3 |
 |  158 |       165    0.2 |       388    0.2  19.6 |      350    0.3 |
 |  159 |       489    0.5 |      1120    0.5  72.7 |      697    0.5 |
 |  160 |       437    0.4 |      1030    0.5  69.7 |      664    0.5 |
 |  161 |       167    0.2 |       392    0.2  19.4 |      354    0.3 |
 |  162 |       166    0.2 |       390    0.2  20.5 |      350    0.3 |
 |  163 |       166    0.2 |       392    0.2  21.4 |      350    0.3 |
 |  164 |       172    0.2 |       408    0.2  24.8 |      358    0.3 |
 |  165 |       494    0.5 |      1162    0.5  73.8 |      727    0.5 |
 |  166 |       434    0.4 |      1006    0.5  68.9 |      647    0.5 |
 |  167 |       508    0.5 |      1160    0.5  72.6 |      734    0.6 |
 |  168 |       517    0.5 |      1182    0.5  72.8 |      750    0.6 |
 |  169 |       222    0.2 |       560    0.3  42.5 |      434    0.3 |
 |  170 |       547    0.5 |      1254    0.6  75.6 |      770    0.6 |
 |  171 |       474    0.5 |      1082    0.5  71.7 |      687    0.5 |
 |  172 |       503    0.5 |      1152    0.5  73.4 |      727    0.5 |
 |  173 |       171    0.2 |       410    0.2  22.0 |      364    0.3 |
 |  174 |       175    0.2 |       410    0.2  21.5 |      366    0.3 |
 |  175 |       173    0.2 |       410    0.2  21.5 |      366    0.3 |
 |  176 |       174    0.2 |       410    0.2  21.0 |      368    0.3 |
 |  177 |       164    0.2 |       396    0.2  22.7 |      350    0.3 |
 |  178 |       170    0.2 |       402    0.2  21.9 |      358    0.3 |
 |  179 |       168    0.2 |       400    0.2  21.0 |      358    0.3 |
 |  180 |       168    0.2 |       400    0.2  23.0 |      354    0.3 |
 |  181 |       518    0.5 |      1190    0.5  73.3 |      733    0.6 |
 |  182 |       556    0.5 |      1310    0.6  76.6 |      802    0.6 |
 |  183 |       491    0.5 |      1134    0.5  72.3 |      718    0.5 |
 |  184 |       294    0.3 |       720    0.3  55.3 |      508    0.4 |
 |  185 |       476    0.5 |      1170    0.5  73.7 |      727    0.5 |
 |  186 |       559    0.6 |      1282    0.6  76.0 |      747    0.6 |
 |  187 |       168    0.2 |       402    0.2  23.9 |      354    0.3 |
 |  188 |       168    0.2 |       398    0.2  22.1 |      354    0.3 |
 |  189 |       408    0.4 |       944    0.4  67.4 |      621    0.5 |
 |  190 |       401    0.4 |       930    0.4  65.4 |      637    0.5 |
 |  191 |       171    0.2 |       404    0.2  20.8 |      362    0.3 |
 |  192 |       172    0.2 |       406    0.2  20.7 |      364    0.3 |
 |  193 |       174    0.2 |       416    0.2  23.1 |      368    0.3 |
 |  194 |       170    0.2 |       404    0.2  21.8 |      360    0.3 |
 |  195 |       173    0.2 |       414    0.2  22.2 |      368    0.3 |
 |  196 |       167    0.2 |       392    0.2  21.4 |      350    0.3 |
 |  197 |       525    0.5 |      1210    0.6  74.4 |      757    0.6 |
 |  198 |       498    0.5 |      1146    0.5  73.1 |      726    0.5 |
 |  199 |       363    0.4 |       812    0.4  62.4 |      575    0.4 |
 |  200 |       170    0.2 |       400    0.2  20.2 |      360    0.3 |
 |  201 |       168    0.2 |       414    0.2  25.1 |      362    0.3 |
 |  202 |       174    0.2 |       410    0.2  21.5 |      366    0.3 |
 |  203 |       477    0.5 |      1096    0.5  72.1 |      698    0.5 |
 |  204 |       479    0.5 |      1074    0.5  70.6 |      700    0.5 |
 |  205 |       429    0.4 |      1010    0.5  68.3 |      653    0.5 |
 |  206 |       541    0.5 |      1232    0.6  73.9 |      770    0.6 |
 |  207 |       170    0.2 |       410    0.2  24.4 |      360    0.3 |
 |  208 |       176    0.2 |       420    0.2  23.8 |      370    0.3 |
 |  209 |       166    0.2 |       398    0.2  22.1 |      354    0.3 |
 |  210 |       166    0.2 |       396    0.2  22.2 |      352    0.3 |
 |  211 |       167    0.2 |       392    0.2  20.4 |      352    0.3 |
 |  212 |       167    0.2 |       394    0.2  21.3 |      352    0.3 |
 |  213 |       475    0.5 |      1102    0.5  71.1 |      702    0.5 |
 |  214 |       528    0.5 |      1206    0.6  74.6 |      745    0.6 |
 |  215 |       529    0.5 |      1208    0.6  73.3 |      755    0.6 |
 |  216 |       317    0.3 |       770    0.4  58.2 |      532    0.4 |
 |  217 |       169    0.2 |       418    0.2  25.8 |      364    0.3 |
 |  218 |       174    0.2 |       408    0.2  21.6 |      364    0.3 |
 |  219 |       526    0.5 |      1196    0.5  74.4 |      751    0.6 |
 |  220 |       525    0.5 |      1196    0.5  73.9 |      749    0.6 |
 |  221 |       167    0.2 |       392    0.2  19.4 |      354    0.3 |
 |  222 |       167    0.2 |       394    0.2  22.3 |      350    0.3 |
 |  223 |       167    0.2 |       398    0.2  21.1 |      356    0.3 |
 |  224 |       520    0.5 |      1190    0.5  74.3 |      747    0.6 |
 |  225 |       524    0.5 |      1216    0.6  74.0 |      754    0.6 |
 |  226 |       509    0.5 |      1186    0.5  73.7 |      746    0.6 |
 |  227 |       435    0.4 |      1046    0.5  70.0 |      656    0.5 |
 |  228 |       516    0.5 |      1224    0.6  74.5 |      747    0.6 |
 |  229 |       173    0.2 |       406    0.2  20.7 |      364    0.3 |
 |  230 |       171    0.2 |       406    0.2  20.7 |      364    0.3 |
 |  231 |       173    0.2 |       406    0.2  22.7 |      360    0.3 |
 |  232 |       170    0.2 |       408    0.2  21.6 |      364    0.3 |
 |  233 |       173    0.2 |       414    0.2  22.2 |      368    0.3 |
 |  234 |       175    0.2 |       418    0.2  23.0 |      370    0.3 |
 |  235 |       170    0.2 |       402    0.2  21.4 |      360    0.3 |
 |  236 |       167    0.2 |       400    0.2  23.5 |      352    0.3 |
 |  237 |       459    0.5 |      1050    0.5  70.5 |      671    0.5 |
 |  238 |       466    0.5 |      1074    0.5  71.5 |      680    0.5 |
 |  239 |       487    0.5 |      1136    0.5  71.7 |      721    0.5 |
 |  240 |       506    0.5 |      1164    0.5  73.7 |      725    0.5 |
 |  241 |       167    0.2 |       404    0.2  22.8 |      358    0.3 |
 |  242 |       171    0.2 |       402    0.2  21.9 |      358    0.3 |
 |  243 |       150    0.1 |       356    0.2  12.4 |      333    0.3 |
 |  244 |       164    0.2 |       394    0.2  22.3 |      350    0.3 |
 |  245 |       503    0.5 |      1178    0.5  73.9 |      714    0.5 |
 |  246 |       405    0.4 |       976    0.4  67.8 |      627    0.5 |
 |  247 |       532    0.5 |      1252    0.6  74.3 |      776    0.6 |
 |  248 |       521    0.5 |      1196    0.5  73.2 |      751    0.6 |
 |  249 |       171    0.2 |       408    0.2  21.6 |      364    0.3 |
 |  250 |       533    0.5 |      1226    0.6  74.1 |      771    0.6 |
 |  251 |       498    0.5 |      1144    0.5  71.9 |      728    0.5 |
 |  252 |       495    0.5 |      1170    0.5  73.2 |      733    0.6 |
 |  253 |       172    0.2 |       406    0.2  21.7 |      362    0.3 |
 |  254 |       165    0.2 |       398    0.2  23.1 |      352    0.3 |
 |  255 |       170    0.2 |       416    0.2  26.0 |      362    0.3 |
 |  256 |       172    0.2 |       414    0.2  26.1 |      360    0.3 |
 +------+------------------+------------------------+-----------------+
 | Min  |       150    0.1 |       356    0.2  12.4 |      281    0.2 |
 |(part)|           (  243)|           (  243   243)|          (   95)|
 +------+------------------+------------------------+-----------------+
 | Max  |       908    0.9 |      1915    0.9  82.1 |      978    0.7 |
 |(part)|           (   46)|           (   46    46)|          (   46)|
 +------+------------------+------------------------+-----------------+
 | Ave  |       396    0.4 |       854    0.4  61.0 |      519    0.4 |
 +------+------------------+------------------------+-----------------+
 | Sum  |    101258  100.0 |    218656  100.0  61.0 |   132850  100.0 |
 +------+------------------+------------------------+-----------------+

 +--------------------------------------------------------------------+
 |                 Partitioning CPU-Time Requirements                 |
 +--------------------------------------------------------------------+
  
 - Preparations                                       1.546E+00 seconds
 - Low-level mesh partitioning                        1.220E+00 seconds
 - Gather zone interface information                  1.020E+01 seconds
 - Global partitioning information                    1.250E-01 seconds
 - Element and face partitioning information          1.720E-01 seconds
 - Vertex partitioning information                    5.000E-01 seconds
 - Partitioning information compression               1.500E-02 seconds
 - Summed CPU-time for mesh partitioning              1.461E+01 seconds

 +--------------------------------------------------------------------+
 |                   Job Information at End of Run                    |
 +--------------------------------------------------------------------+

 +---------------------------+------+----------+----------+-----------+
 | Host                      | Mesh |     Job Finished    |    CPU    |
 |                           | Part | DD/MM/YY | hh:mm:ss |  seconds  |
 +---------------------------+------+----------+----------+-----------+
 | RD000D3A21B506            |    1 | 01/06/15 | 05:59:40 | 2.738E+01 |
 +---------------------------+------+----------+----------+-----------+

 Total wall clock time: 2.698E+01 seconds
             or: (          0:         0:         0:    26.983 )
                 (       Days:     Hours:   Minutes:   Seconds )


 +--------------------------------------------------------------------+
 |                                                                    |
 |                               Solver                               |
 |                                                                    |
 +--------------------------------------------------------------------+




 +--------------------------------------------------------------------+
 |                                                                    |
 |                    ANSYS(R) CFX(R) Solver 15.0.7                   |
 |                                                                    |
 | Version 2014.04.10-23.00-131675     Thu Apr 10 23:23:23 GMTDT 2014 |
 |                                                                    |
 |                        Executable Attributes                       |
 |                                                                    |
 |          single-64bit-int32-supfort-optimised-noprof-lcomp         |
 |                                                                    |
 | (C) 2014 ANSYS, Inc.                                               |
 |                                                                    |
 | All rights reserved. Unauthorized use, distribution or duplication |
 | is prohibited. This product is subject to U.S. laws governing      |
 | export and re-export. For full Legal Notice, see documentation.    |
 +--------------------------------------------------------------------+




 +--------------------------------------------------------------------+
 |                  Job Information at Start of Run                   |
 +--------------------------------------------------------------------+

 Run mode:       parallel run (MS MPI)

 +------------------------------+------+--------+----------+----------+
 | Host                         | Mesh |  PID   |     Job Started     |
 |                              | Part |        | DD/MM/YY | hh:mm:ss |
 +------------------------------+------+--------+----------+----------+
 | RD000D3A21B506               |    1 |   3152 | 01/06/15 | 06:01:11 |
 |                              |    2 |   3980 | 01/06/15 | 06:01:11 |
 |                              |    3 |   3520 | 01/06/15 | 06:01:11 |
 |                              |    4 |   3352 | 01/06/15 | 06:01:11 |
 |                              |    5 |   2612 | 01/06/15 | 06:01:11 |
 |                              |    6 |   3252 | 01/06/15 | 06:01:11 |
 |                              |    7 |    668 | 01/06/15 | 06:01:11 |
 |                              |    8 |   3256 | 01/06/15 | 06:01:11 |
 +------------------------------+------+--------+----------+----------+
 | RD000D3A21BF56               |    9 |   1212 | 01/06/15 | 06:01:11 |
 |                              |   10 |   3016 | 01/06/15 | 06:01:11 |
 |                              |   11 |    880 | 01/06/15 | 06:01:11 |
 |                              |   12 |    956 | 01/06/15 | 06:01:11 |
 |                              |   13 |   2764 | 01/06/15 | 06:01:11 |
 |                              |   14 |    976 | 01/06/15 | 06:01:11 |
 |                              |   15 |   2868 | 01/06/15 | 06:01:11 |
 |                              |   16 |   1008 | 01/06/15 | 06:01:11 |
 +------------------------------+------+--------+----------+----------+
 | RD000D3A21B886               |   17 |   3796 | 01/06/15 | 06:01:11 |
 |                              |   18 |   3760 | 01/06/15 | 06:01:11 |
 |                              |   19 |   3696 | 01/06/15 | 06:01:11 |
 |                              |   20 |   2700 | 01/06/15 | 06:01:11 |
 |                              |   21 |   3940 | 01/06/15 | 06:01:11 |
 |                              |   22 |    976 | 01/06/15 | 06:01:11 |
 |                              |   23 |   2896 | 01/06/15 | 06:01:11 |
 |                              |   24 |   3124 | 01/06/15 | 06:01:11 |
 +------------------------------+------+--------+----------+----------+
 | RD000D3A21BD27               |   25 |    964 | 01/06/15 | 06:01:11 |
 |                              |   26 |    980 | 01/06/15 | 06:01:11 |
 |                              |   27 |    976 | 01/06/15 | 06:01:11 |
 |                              |   28 |   1672 | 01/06/15 | 06:01:11 |
 |                              |   29 |   2124 | 01/06/15 | 06:01:11 |
 |                              |   30 |   3804 | 01/06/15 | 06:01:11 |
 |                              |   31 |   1380 | 01/06/15 | 06:01:11 |
 |                              |   32 |   2308 | 01/06/15 | 06:01:11 |
 +------------------------------+------+--------+----------+----------+
 | RD000D3A21B97F               |   33 |   3660 | 01/06/15 | 06:01:11 |
 |                              |   34 |   1692 | 01/06/15 | 06:01:11 |
 |                              |   35 |   3688 | 01/06/15 | 06:01:11 |
 |                              |   36 |   1868 | 01/06/15 | 06:01:11 |
 |                              |   37 |   3680 | 01/06/15 | 06:01:11 |
 |                              |   38 |   1668 | 01/06/15 | 06:01:11 |
 |                              |   39 |   1808 | 01/06/15 | 06:01:11 |
 |                              |   40 |   3864 | 01/06/15 | 06:01:11 |
 +------------------------------+------+--------+----------+----------+
 | RD000D3A21B1AF               |   41 |   3428 | 01/06/15 | 06:01:11 |
 |                              |   42 |   1764 | 01/06/15 | 06:01:11 |
 |                              |   43 |    960 | 01/06/15 | 06:01:11 |
 |                              |   44 |   2348 | 01/06/15 | 06:01:11 |
 |                              |   45 |    968 | 01/06/15 | 06:01:11 |
 |                              |   46 |    972 | 01/06/15 | 06:01:11 |
 |                              |   47 |    740 | 01/06/15 | 06:01:11 |
 |                              |   48 |   3036 | 01/06/15 | 06:01:11 |
 +------------------------------+------+--------+----------+----------+
 | RD000D3A21B70F               |   49 |   2868 | 01/06/15 | 06:01:11 |
 |                              |   50 |   2656 | 01/06/15 | 06:01:11 |
 |                              |   51 |   3400 | 01/06/15 | 06:01:11 |
 |                              |   52 |   3184 | 01/06/15 | 06:01:11 |
 |                              |   53 |   1128 | 01/06/15 | 06:01:11 |
 |                              |   54 |    732 | 01/06/15 | 06:01:11 |
 |                              |   55 |   3288 | 01/06/15 | 06:01:11 |
 |                              |   56 |    920 | 01/06/15 | 06:01:11 |
 +------------------------------+------+--------+----------+----------+
 | RD000D3A21BADD               |   57 |   3136 | 01/06/15 | 06:01:11 |
 |                              |   58 |   2636 | 01/06/15 | 06:01:11 |
 |                              |   59 |   3568 | 01/06/15 | 06:01:11 |
 |                              |   60 |   2732 | 01/06/15 | 06:01:11 |
 |                              |   61 |   4068 | 01/06/15 | 06:01:11 |
 |                              |   62 |   3600 | 01/06/15 | 06:01:11 |
 |                              |   63 |   2604 | 01/06/15 | 06:01:11 |
 |                              |   64 |   1692 | 01/06/15 | 06:01:11 |
 +------------------------------+------+--------+----------+----------+
 | RD000D3A21B981               |   65 |   2220 | 01/06/15 | 06:01:11 |
 |                              |   66 |   3824 | 01/06/15 | 06:01:11 |
 |                              |   67 |   3000 | 01/06/15 | 06:01:11 |
 |                              |   68 |   1616 | 01/06/15 | 06:01:11 |
 |                              |   69 |   2824 | 01/06/15 | 06:01:11 |
 |                              |   70 |   2368 | 01/06/15 | 06:01:11 |
 |                              |   71 |   3820 | 01/06/15 | 06:01:11 |
 |                              |   72 |   1980 | 01/06/15 | 06:01:11 |
 +------------------------------+------+--------+----------+----------+
 | RD000D3A21B2D8               |   73 |   4008 | 01/06/15 | 06:01:11 |
 |                              |   74 |   1436 | 01/06/15 | 06:01:11 |
 |                              |   75 |   2836 | 01/06/15 | 06:01:11 |
 |                              |   76 |   1360 | 01/06/15 | 06:01:11 |
 |                              |   77 |   1352 | 01/06/15 | 06:01:11 |
 |                              |   78 |   2896 | 01/06/15 | 06:01:11 |
 |                              |   79 |   2460 | 01/06/15 | 06:01:11 |
 |                              |   80 |   3040 | 01/06/15 | 06:01:11 |
 +------------------------------+------+--------+----------+----------+
 | RD000D3A21B377               |   81 |   2876 | 01/06/15 | 06:01:10 |
 |                              |   82 |   3340 | 01/06/15 | 06:01:10 |
 |                              |   83 |   3564 | 01/06/15 | 06:01:10 |
 |                              |   84 |   3672 | 01/06/15 | 06:01:10 |
 |                              |   85 |   4036 | 01/06/15 | 06:01:10 |
 |                              |   86 |   3400 | 01/06/15 | 06:01:10 |
 |                              |   87 |   3528 | 01/06/15 | 06:01:10 |
 |                              |   88 |   1112 | 01/06/15 | 06:01:10 |
 +------------------------------+------+--------+----------+----------+
 | RD000D3A21BA37               |   89 |   3924 | 01/06/15 | 06:01:10 |
 |                              |   90 |   1176 | 01/06/15 | 06:01:10 |
 |                              |   91 |   2756 | 01/06/15 | 06:01:10 |
 |                              |   92 |    704 | 01/06/15 | 06:01:10 |
 |                              |   93 |   3364 | 01/06/15 | 06:01:10 |
 |                              |   94 |   2568 | 01/06/15 | 06:01:10 |
 |                              |   95 |   2820 | 01/06/15 | 06:01:10 |
 |                              |   96 |   1900 | 01/06/15 | 06:01:10 |
 +------------------------------+------+--------+----------+----------+
 | RD000D3A21BC28               |   97 |   2376 | 01/06/15 | 06:01:11 |
 |                              |   98 |   3336 | 01/06/15 | 06:01:11 |
 |                              |   99 |   2720 | 01/06/15 | 06:01:11 |
 |                              |  100 |   2424 | 01/06/15 | 06:01:11 |
 |                              |  101 |   3516 | 01/06/15 | 06:01:11 |
 |                              |  102 |   3600 | 01/06/15 | 06:01:11 |
 |                              |  103 |    952 | 01/06/15 | 06:01:11 |
 |                              |  104 |    976 | 01/06/15 | 06:01:11 |
 +------------------------------+------+--------+----------+----------+
 | RD000D3A21BC4B               |  105 |   3012 | 01/06/15 | 06:01:11 |
 |                              |  106 |   1000 | 01/06/15 | 06:01:11 |
 |                              |  107 |    932 | 01/06/15 | 06:01:11 |
 |                              |  108 |   3776 | 01/06/15 | 06:01:11 |
 |                              |  109 |   2864 | 01/06/15 | 06:01:11 |
 |                              |  110 |   1572 | 01/06/15 | 06:01:11 |
 |                              |  111 |   1544 | 01/06/15 | 06:01:11 |
 |                              |  112 |   1676 | 01/06/15 | 06:01:11 |
 +------------------------------+------+--------+----------+----------+
 | RD000D3A21B257               |  113 |   4028 | 01/06/15 | 06:01:11 |
 |                              |  114 |   3100 | 01/06/15 | 06:01:11 |
 |                              |  115 |   2448 | 01/06/15 | 06:01:11 |
 |                              |  116 |    664 | 01/06/15 | 06:01:11 |
 |                              |  117 |   2156 | 01/06/15 | 06:01:11 |
 |                              |  118 |   3180 | 01/06/15 | 06:01:11 |
 |                              |  119 |   1812 | 01/06/15 | 06:01:11 |
 |                              |  120 |   2688 | 01/06/15 | 06:01:11 |
 +------------------------------+------+--------+----------+----------+
 | RD000D3A21B1DB               |  121 |   2336 | 01/06/15 | 06:01:10 |
 |                              |  122 |   3048 | 01/06/15 | 06:01:10 |
 |                              |  123 |   3388 | 01/06/15 | 06:01:10 |
 |                              |  124 |   3288 | 01/06/15 | 06:01:10 |
 |                              |  125 |   2412 | 01/06/15 | 06:01:10 |
 |                              |  126 |   1980 | 01/06/15 | 06:01:10 |
 |                              |  127 |    988 | 01/06/15 | 06:01:10 |
 |                              |  128 |   2976 | 01/06/15 | 06:01:10 |
 +------------------------------+------+--------+----------+----------+
 | RD000D3A21B8A8               |  129 |   3840 | 01/06/15 | 06:01:11 |
 |                              |  130 |   2020 | 01/06/15 | 06:01:11 |
 |                              |  131 |   2328 | 01/06/15 | 06:01:11 |
 |                              |  132 |   3160 | 01/06/15 | 06:01:11 |
 |                              |  133 |   3452 | 01/06/15 | 06:01:11 |
 |                              |  134 |   1884 | 01/06/15 | 06:01:11 |
 |                              |  135 |   2348 | 01/06/15 | 06:01:11 |
 |                              |  136 |   3684 | 01/06/15 | 06:01:11 |
 +------------------------------+------+--------+----------+----------+
 | RD000D3A21B781               |  137 |   3024 | 01/06/15 | 06:01:11 |
 |                              |  138 |   1264 | 01/06/15 | 06:01:11 |
 |                              |  139 |   1680 | 01/06/15 | 06:01:11 |
[...]
 |                           |   20 | 01/06/15 | 06:08:00 | 4.188E+02 |
 |                           |   21 | 01/06/15 | 06:08:00 | 4.188E+02 |
 |                           |   22 | 01/06/15 | 06:08:00 | 4.188E+02 |
 |                           |   23 | 01/06/15 | 06:08:00 | 4.188E+02 |
 |                           |   24 | 01/06/15 | 06:08:00 | 4.188E+02 |
 +---------------------------+------+----------+----------+-----------+
 | RD000D3A21BD27            |   25 | 01/06/15 | 06:08:00 | 4.293E+02 |
 |                           |   26 | 01/06/15 | 06:08:00 | 4.293E+02 |
 |                           |   27 | 01/06/15 | 06:08:00 | 4.293E+02 |
 |                           |   28 | 01/06/15 | 06:08:00 | 4.293E+02 |
 |                           |   29 | 01/06/15 | 06:08:00 | 4.293E+02 |
 |                           |   30 | 01/06/15 | 06:08:00 | 4.293E+02 |
 |                           |   31 | 01/06/15 | 06:08:00 | 4.293E+02 |
 |                           |   32 | 01/06/15 | 06:08:00 | 4.293E+02 |
 +---------------------------+------+----------+----------+-----------+
 | RD000D3A21B97F            |   33 | 01/06/15 | 06:08:00 | 4.194E+02 |
 |                           |   34 | 01/06/15 | 06:08:00 | 4.194E+02 |
 |                           |   35 | 01/06/15 | 06:08:00 | 4.194E+02 |
 |                           |   36 | 01/06/15 | 06:08:00 | 4.194E+02 |
 |                           |   37 | 01/06/15 | 06:08:00 | 4.194E+02 |
 |                           |   38 | 01/06/15 | 06:08:00 | 4.194E+02 |
 |                           |   39 | 01/06/15 | 06:08:00 | 4.194E+02 |
 |                           |   40 | 01/06/15 | 06:08:00 | 4.194E+02 |
 +---------------------------+------+----------+----------+-----------+
 | RD000D3A21B1AF            |   41 | 01/06/15 | 06:08:00 | 4.126E+02 |
 |                           |   42 | 01/06/15 | 06:08:00 | 4.126E+02 |
 |                           |   43 | 01/06/15 | 06:08:00 | 4.126E+02 |
 |                           |   44 | 01/06/15 | 06:08:00 | 4.126E+02 |
 |                           |   45 | 01/06/15 | 06:08:00 | 4.126E+02 |
 |                           |   46 | 01/06/15 | 06:08:00 | 4.126E+02 |
 |                           |   47 | 01/06/15 | 06:08:00 | 4.126E+02 |
 |                           |   48 | 01/06/15 | 06:08:00 | 4.126E+02 |
 +---------------------------+------+----------+----------+-----------+
 | RD000D3A21B70F            |   49 | 01/06/15 | 06:08:00 | 4.128E+02 |
 |                           |   50 | 01/06/15 | 06:08:00 | 4.128E+02 |
 |                           |   51 | 01/06/15 | 06:08:00 | 4.128E+02 |
 |                           |   52 | 01/06/15 | 06:08:00 | 4.128E+02 |
 |                           |   53 | 01/06/15 | 06:08:00 | 4.128E+02 |
 |                           |   54 | 01/06/15 | 06:08:00 | 4.128E+02 |
 |                           |   55 | 01/06/15 | 06:08:00 | 4.128E+02 |
 |                           |   56 | 01/06/15 | 06:08:00 | 4.128E+02 |
 +---------------------------+------+----------+----------+-----------+
 | RD000D3A21BADD            |   57 | 01/06/15 | 06:08:00 | 4.282E+02 |
 |                           |   58 | 01/06/15 | 06:08:00 | 4.282E+02 |
 |                           |   59 | 01/06/15 | 06:08:00 | 4.282E+02 |
 |                           |   60 | 01/06/15 | 06:08:00 | 4.282E+02 |
 |                           |   61 | 01/06/15 | 06:08:00 | 4.282E+02 |
 |                           |   62 | 01/06/15 | 06:08:00 | 4.282E+02 |
 |                           |   63 | 01/06/15 | 06:08:00 | 4.282E+02 |
 |                           |   64 | 01/06/15 | 06:08:00 | 4.282E+02 |
 +---------------------------+------+----------+----------+-----------+
 | RD000D3A21B981            |   65 | 01/06/15 | 06:08:00 | 4.669E+02 |
 |                           |   66 | 01/06/15 | 06:08:00 | 4.669E+02 |
 |                           |   67 | 01/06/15 | 06:08:00 | 4.669E+02 |
 |                           |   68 | 01/06/15 | 06:08:00 | 4.669E+02 |
 |                           |   69 | 01/06/15 | 06:08:00 | 4.669E+02 |
 |                           |   70 | 01/06/15 | 06:08:00 | 4.669E+02 |
 |                           |   71 | 01/06/15 | 06:08:00 | 4.669E+02 |
 |                           |   72 | 01/06/15 | 06:08:00 | 4.669E+02 |
 +---------------------------+------+----------+----------+-----------+
 | RD000D3A21B2D8            |   73 | 01/06/15 | 06:08:00 | 4.308E+02 |
 |                           |   74 | 01/06/15 | 06:08:00 | 4.308E+02 |
 |                           |   75 | 01/06/15 | 06:08:00 | 4.308E+02 |
 |                           |   76 | 01/06/15 | 06:08:00 | 4.308E+02 |
 |                           |   77 | 01/06/15 | 06:08:00 | 4.308E+02 |
 |                           |   78 | 01/06/15 | 06:08:00 | 4.308E+02 |
 |                           |   79 | 01/06/15 | 06:08:00 | 4.308E+02 |
 |                           |   80 | 01/06/15 | 06:08:00 | 4.308E+02 |
 +---------------------------+------+----------+----------+-----------+
 | RD000D3A21B377            |   81 | 01/06/15 | 06:07:59 | 4.128E+02 |
 |                           |   82 | 01/06/15 | 06:07:59 | 4.128E+02 |
 |                           |   83 | 01/06/15 | 06:07:59 | 4.128E+02 |
 |                           |   84 | 01/06/15 | 06:07:59 | 4.128E+02 |
 |                           |   85 | 01/06/15 | 06:07:59 | 4.128E+02 |
 |                           |   86 | 01/06/15 | 06:07:59 | 4.128E+02 |
 |                           |   87 | 01/06/15 | 06:07:59 | 4.128E+02 |
 |                           |   88 | 01/06/15 | 06:07:59 | 4.128E+02 |
 +---------------------------+------+----------+----------+-----------+
 | RD000D3A21BA37            |   89 | 01/06/15 | 06:07:59 | 4.191E+02 |
 |                           |   90 | 01/06/15 | 06:07:59 | 4.191E+02 |
 |                           |   91 | 01/06/15 | 06:07:59 | 4.191E+02 |
 |                           |   92 | 01/06/15 | 06:07:59 | 4.191E+02 |
 |                           |   93 | 01/06/15 | 06:07:59 | 4.191E+02 |
 |                           |   94 | 01/06/15 | 06:07:59 | 4.191E+02 |
 |                           |   95 | 01/06/15 | 06:07:59 | 4.191E+02 |
 |                           |   96 | 01/06/15 | 06:07:59 | 4.191E+02 |
 +---------------------------+------+----------+----------+-----------+
 | RD000D3A21BC28            |   97 | 01/06/15 | 06:08:00 | 4.189E+02 |
 |                           |   98 | 01/06/15 | 06:08:00 | 4.189E+02 |
 |                           |   99 | 01/06/15 | 06:08:00 | 4.189E+02 |
 |                           |  100 | 01/06/15 | 06:08:00 | 4.189E+02 |
 |                           |  101 | 01/06/15 | 06:08:00 | 4.189E+02 |
 |                           |  102 | 01/06/15 | 06:08:00 | 4.189E+02 |
 |                           |  103 | 01/06/15 | 06:08:00 | 4.189E+02 |
 |                           |  104 | 01/06/15 | 06:08:00 | 4.189E+02 |
 +---------------------------+------+----------+----------+-----------+
 | RD000D3A21BC4B            |  105 | 01/06/15 | 06:08:00 | 4.159E+02 |
 |                           |  106 | 01/06/15 | 06:08:00 | 4.159E+02 |
 |                           |  107 | 01/06/15 | 06:08:00 | 4.159E+02 |
 |                           |  108 | 01/06/15 | 06:08:00 | 4.159E+02 |
 |                           |  109 | 01/06/15 | 06:08:00 | 4.159E+02 |
 |                           |  110 | 01/06/15 | 06:08:00 | 4.159E+02 |
 |                           |  111 | 01/06/15 | 06:08:00 | 4.159E+02 |
 |                           |  112 | 01/06/15 | 06:08:00 | 4.159E+02 |
 +---------------------------+------+----------+----------+-----------+
 | RD000D3A21B257            |  113 | 01/06/15 | 06:08:00 | 4.196E+02 |
 |                           |  114 | 01/06/15 | 06:08:00 | 4.196E+02 |
 |                           |  115 | 01/06/15 | 06:08:00 | 4.196E+02 |
 |                           |  116 | 01/06/15 | 06:08:00 | 4.196E+02 |
 |                           |  117 | 01/06/15 | 06:08:00 | 4.196E+02 |
 |                           |  118 | 01/06/15 | 06:08:00 | 4.196E+02 |
 |                           |  119 | 01/06/15 | 06:08:00 | 4.196E+02 |
 |                           |  120 | 01/06/15 | 06:08:00 | 4.196E+02 |
 +---------------------------+------+----------+----------+-----------+
 | RD000D3A21B1DB            |  121 | 01/06/15 | 06:07:59 | 4.261E+02 |
 |                           |  122 | 01/06/15 | 06:07:59 | 4.261E+02 |
 |                           |  123 | 01/06/15 | 06:07:59 | 4.261E+02 |
 |                           |  124 | 01/06/15 | 06:07:59 | 4.261E+02 |
 |                           |  125 | 01/06/15 | 06:07:59 | 4.261E+02 |
 |                           |  126 | 01/06/15 | 06:07:59 | 4.261E+02 |
 |                           |  127 | 01/06/15 | 06:07:59 | 4.261E+02 |
 |                           |  128 | 01/06/15 | 06:07:59 | 4.261E+02 |
 +---------------------------+------+----------+----------+-----------+
 | RD000D3A21B8A8            |  129 | 01/06/15 | 06:07:59 | 4.320E+02 |
 |                           |  130 | 01/06/15 | 06:07:59 | 4.320E+02 |
 |                           |  131 | 01/06/15 | 06:07:59 | 4.320E+02 |
 |                           |  132 | 01/06/15 | 06:07:59 | 4.320E+02 |
 |                           |  133 | 01/06/15 | 06:07:59 | 4.320E+02 |
 |                           |  134 | 01/06/15 | 06:07:59 | 4.320E+02 |
 |                           |  135 | 01/06/15 | 06:07:59 | 4.320E+02 |
 |                           |  136 | 01/06/15 | 06:07:59 | 4.320E+02 |
 +---------------------------+------+----------+----------+-----------+
 | RD000D3A21B781            |  137 | 01/06/15 | 06:08:00 | 4.136E+02 |
 |                           |  138 | 01/06/15 | 06:08:00 | 4.136E+02 |
 |                           |  139 | 01/06/15 | 06:08:00 | 4.136E+02 |
 |                           |  140 | 01/06/15 | 06:08:00 | 4.136E+02 |
 |                           |  141 | 01/06/15 | 06:08:00 | 4.136E+02 |
 |                           |  142 | 01/06/15 | 06:08:00 | 4.136E+02 |
 |                           |  143 | 01/06/15 | 06:08:00 | 4.136E+02 |
 |                           |  144 | 01/06/15 | 06:08:00 | 4.136E+02 |
 +---------------------------+------+----------+----------+-----------+
 | RD000D3A21B463            |  145 | 01/06/15 | 06:08:00 | 4.128E+02 |
 |                           |  146 | 01/06/15 | 06:08:00 | 4.128E+02 |
 |                           |  147 | 01/06/15 | 06:08:00 | 4.128E+02 |
 |                           |  148 | 01/06/15 | 06:08:00 | 4.128E+02 |
 |                           |  149 | 01/06/15 | 06:08:00 | 4.128E+02 |
 |                           |  150 | 01/06/15 | 06:08:00 | 4.128E+02 |
 |                           |  151 | 01/06/15 | 06:08:00 | 4.128E+02 |
 |                           |  152 | 01/06/15 | 06:08:00 | 4.128E+02 |
 +---------------------------+------+----------+----------+-----------+
 | RD000D3A21BBA9            |  153 | 01/06/15 | 06:08:00 | 4.307E+02 |
 |                           |  154 | 01/06/15 | 06:08:00 | 4.307E+02 |
 |                           |  155 | 01/06/15 | 06:08:00 | 4.307E+02 |
 |                           |  156 | 01/06/15 | 06:08:00 | 4.307E+02 |
 |                           |  157 | 01/06/15 | 06:08:00 | 4.307E+02 |
 |                           |  158 | 01/06/15 | 06:08:00 | 4.307E+02 |
 |                           |  159 | 01/06/15 | 06:08:00 | 4.307E+02 |
 |                           |  160 | 01/06/15 | 06:08:00 | 4.307E+02 |
 +---------------------------+------+----------+----------+-----------+
 | RD000D3A21B330            |  161 | 01/06/15 | 06:08:00 | 4.113E+02 |
 |                           |  162 | 01/06/15 | 06:08:00 | 4.113E+02 |
 |                           |  163 | 01/06/15 | 06:08:00 | 4.113E+02 |
 |                           |  164 | 01/06/15 | 06:08:00 | 4.113E+02 |
 |                           |  165 | 01/06/15 | 06:08:00 | 4.113E+02 |
 |                           |  166 | 01/06/15 | 06:08:00 | 4.113E+02 |
 |                           |  167 | 01/06/15 | 06:08:00 | 4.113E+02 |
 |                           |  168 | 01/06/15 | 06:08:00 | 4.113E+02 |
 +---------------------------+------+----------+----------+-----------+
 | RD000D3A21B326            |  169 | 01/06/15 | 06:08:00 | 4.189E+02 |
 |                           |  170 | 01/06/15 | 06:08:00 | 4.189E+02 |
 |                           |  171 | 01/06/15 | 06:08:00 | 4.189E+02 |
 |                           |  172 | 01/06/15 | 06:08:00 | 4.189E+02 |
 |                           |  173 | 01/06/15 | 06:08:00 | 4.189E+02 |
 |                           |  174 | 01/06/15 | 06:08:00 | 4.189E+02 |
 |                           |  175 | 01/06/15 | 06:08:00 | 4.189E+02 |
 |                           |  176 | 01/06/15 | 06:08:00 | 4.189E+02 |
 +---------------------------+------+----------+----------+-----------+
 | RD000D3A21B739            |  177 | 01/06/15 | 06:08:00 | 4.132E+02 |
 |                           |  178 | 01/06/15 | 06:08:00 | 4.132E+02 |
 |                           |  179 | 01/06/15 | 06:08:00 | 4.132E+02 |
 |                           |  180 | 01/06/15 | 06:08:00 | 4.132E+02 |
 |                           |  181 | 01/06/15 | 06:08:00 | 4.132E+02 |
 |                           |  182 | 01/06/15 | 06:08:00 | 4.132E+02 |
 |                           |  183 | 01/06/15 | 06:08:00 | 4.132E+02 |
 |                           |  184 | 01/06/15 | 06:08:00 | 4.132E+02 |
 +---------------------------+------+----------+----------+-----------+
 | RD000D3A21B3FE            |  185 | 01/06/15 | 06:08:00 | 4.200E+02 |
 |                           |  186 | 01/06/15 | 06:08:00 | 4.200E+02 |
 |                           |  187 | 01/06/15 | 06:08:00 | 4.200E+02 |
 |                           |  188 | 01/06/15 | 06:08:00 | 4.200E+02 |
 |                           |  189 | 01/06/15 | 06:08:00 | 4.200E+02 |
 |                           |  190 | 01/06/15 | 06:08:00 | 4.200E+02 |
 |                           |  191 | 01/06/15 | 06:08:00 | 4.200E+02 |
 |                           |  192 | 01/06/15 | 06:08:00 | 4.200E+02 |
 +---------------------------+------+----------+----------+-----------+
 | RD000D3A21B16B            |  193 | 01/06/15 | 06:08:00 | 4.127E+02 |
 |                           |  194 | 01/06/15 | 06:08:00 | 4.127E+02 |
 |                           |  195 | 01/06/15 | 06:08:00 | 4.127E+02 |
 |                           |  196 | 01/06/15 | 06:08:00 | 4.127E+02 |
 |                           |  197 | 01/06/15 | 06:08:00 | 4.127E+02 |
 |                           |  198 | 01/06/15 | 06:08:00 | 4.127E+02 |
 |                           |  199 | 01/06/15 | 06:08:00 | 4.127E+02 |
 |                           |  200 | 01/06/15 | 06:08:00 | 4.127E+02 |
 +---------------------------+------+----------+----------+-----------+
 | RD000D3A21BC69            |  201 | 01/06/15 | 06:07:59 | 4.186E+02 |
 |                           |  202 | 01/06/15 | 06:07:59 | 4.186E+02 |
 |                           |  203 | 01/06/15 | 06:07:59 | 4.186E+02 |
 |                           |  204 | 01/06/15 | 06:07:59 | 4.186E+02 |
 |                           |  205 | 01/06/15 | 06:07:59 | 4.186E+02 |
 |                           |  206 | 01/06/15 | 06:07:59 | 4.186E+02 |
 |                           |  207 | 01/06/15 | 06:07:59 | 4.186E+02 |
 |                           |  208 | 01/06/15 | 06:07:59 | 4.186E+02 |
 +---------------------------+------+----------+----------+-----------+
 | RD000D3A21BD93            |  209 | 01/06/15 | 06:08:00 | 4.128E+02 |
 |                           |  210 | 01/06/15 | 06:08:00 | 4.128E+02 |
 |                           |  211 | 01/06/15 | 06:08:00 | 4.128E+02 |
 |                           |  212 | 01/06/15 | 06:08:00 | 4.128E+02 |
 |                           |  213 | 01/06/15 | 06:08:00 | 4.128E+02 |
 |                           |  214 | 01/06/15 | 06:08:00 | 4.128E+02 |
 |                           |  215 | 01/06/15 | 06:08:00 | 4.128E+02 |
 |                           |  216 | 01/06/15 | 06:08:00 | 4.128E+02 |
 +---------------------------+------+----------+----------+-----------+
 | RD000D3A21B7B2            |  217 | 01/06/15 | 06:07:59 | 4.195E+02 |
 |                           |  218 | 01/06/15 | 06:07:59 | 4.195E+02 |
 |                           |  219 | 01/06/15 | 06:07:59 | 4.195E+02 |
 |                           |  220 | 01/06/15 | 06:07:59 | 4.195E+02 |
 |                           |  221 | 01/06/15 | 06:07:59 | 4.195E+02 |
 |                           |  222 | 01/06/15 | 06:07:59 | 4.195E+02 |
 |                           |  223 | 01/06/15 | 06:07:59 | 4.195E+02 |
 |                           |  224 | 01/06/15 | 06:07:59 | 4.195E+02 |
 +---------------------------+------+----------+----------+-----------+
 | RD000D3A21B00C            |  225 | 01/06/15 | 06:08:00 | 4.120E+02 |
 |                           |  226 | 01/06/15 | 06:08:00 | 4.120E+02 |
 |                           |  227 | 01/06/15 | 06:08:00 | 4.120E+02 |
 |                           |  228 | 01/06/15 | 06:08:00 | 4.120E+02 |
 |                           |  229 | 01/06/15 | 06:08:00 | 4.120E+02 |
 |                           |  230 | 01/06/15 | 06:08:00 | 4.120E+02 |
 |                           |  231 | 01/06/15 | 06:08:00 | 4.120E+02 |
 |                           |  232 | 01/06/15 | 06:08:00 | 4.120E+02 |
 +---------------------------+------+----------+----------+-----------+
 | RD000D3A21BA75            |  233 | 01/06/15 | 06:08:00 | 4.190E+02 |
 |                           |  234 | 01/06/15 | 06:08:00 | 4.190E+02 |
 |                           |  235 | 01/06/15 | 06:08:00 | 4.190E+02 |
 |                           |  236 | 01/06/15 | 06:08:00 | 4.190E+02 |
 |                           |  237 | 01/06/15 | 06:08:00 | 4.190E+02 |
 |                           |  238 | 01/06/15 | 06:08:00 | 4.190E+02 |
 |                           |  239 | 01/06/15 | 06:08:00 | 4.190E+02 |
 |                           |  240 | 01/06/15 | 06:08:00 | 4.190E+02 |
 +---------------------------+------+----------+----------+-----------+
 | RD000D3A21B436            |  241 | 01/06/15 | 06:08:00 | 4.386E+02 |
 |                           |  242 | 01/06/15 | 06:08:00 | 4.386E+02 |
 |                           |  243 | 01/06/15 | 06:08:00 | 4.386E+02 |
 |                           |  244 | 01/06/15 | 06:08:00 | 4.386E+02 |
 |                           |  245 | 01/06/15 | 06:08:00 | 4.386E+02 |
 |                           |  246 | 01/06/15 | 06:08:00 | 4.386E+02 |
 |                           |  247 | 01/06/15 | 06:08:00 | 4.386E+02 |
 |                           |  248 | 01/06/15 | 06:08:00 | 4.386E+02 |
 +---------------------------+------+----------+----------+-----------+
 | RD000D3A21B69B            |  249 | 01/06/15 | 06:08:00 | 4.194E+02 |
 |                           |  250 | 01/06/15 | 06:08:00 | 4.194E+02 |
 |                           |  251 | 01/06/15 | 06:08:00 | 4.194E+02 |
 |                           |  252 | 01/06/15 | 06:08:00 | 4.194E+02 |
 |                           |  253 | 01/06/15 | 06:08:00 | 4.194E+02 |
 |                           |  254 | 01/06/15 | 06:08:00 | 4.194E+02 |
 |                           |  255 | 01/06/15 | 06:08:00 | 4.194E+02 |
 |                           |  256 | 01/06/15 | 06:08:00 | 4.194E+02 |
 +---------------------------+------+----------+----------+-----------+

 Total wall clock time: 4.102E+02 seconds
             or: (          0:         0:         6:    50.210 )
                 (       Days:     Hours:   Minutes:   Seconds )



 --> Final synchronization point reached by all partitions.
End of solution stage.

 +--------------------------------------------------------------------+
 | The results from this run of the ANSYS CFX Solver have been        |
 | written to                                                         |
 | \\10.10.13.6\C\Resources\directory\2bc7ac682032419fbc263b1290f8f1- |
 | a0.HSR.AzureEE.HpcWorkerRole.jobdata\job-10\pipe06_001.res         |
 +--------------------------------------------------------------------+


This run of the ANSYS CFX Solver has finished.
