 This run of the CFX-15.0.7 Solver started at 07:03:41 on 29 May 2015 by
 user MpiUser on RD000D3A21FAED (intel_xeon64.sse2_winnt) using the
 command:
 
  "\\hsransys.file.core.windows.net\main\apps\ANSYS Inc\v150\CFX\bin\perllib\cfx5solve.pl"
    -def pipe04.def -chdir
    \\10.10.13.6\C\Resources\directory\3301acebc8f4463d990a819988261bb5.HSR.AzureEE.HpcWorkerRole.jobdata\job-3
    -start-method MSMPI2 -part 256
 
 Point Releases and Patches installed:
 
  ANSYS, Inc. Products 15.0.7
  ANSYS Mechanical Products 15.0.7
  ANSYS Autodyn 15.0.7
  ANSYS LS-DYNA 15.0.7
  ANSYS CFX (includes ANSYS CFD-Post) 15.0.7
  ANSYS Fluent (includes ANSYS CFD-Post) 15.0.7
  ANSYS TurboGrid 15.0.7
  ANSYS Polyflow (includes ANSYS CFD-Post) 15.0.7
  ANSYS Aqwa 15.0.7
  ANSYS ICEM CFD 15.0.7
  ANSYS Icepak (includes ANSYS CFD-Post) 15.0.7
  Catia, Version 6 15.0.7
  ANSYS, Inc. License Manager 15.0.7
 
 Setting up CFX Solver run ...
 

 +--------------------------------------------------------------------+
 |                              Warning!                              |
 |                                                                    |
 | The working directory is a UNC path, but the Windows command shell |
 | is currently not configured to support UNC paths. This may cause   |
 | failure of the CFX Solver.                                         |
 |                                                                    |
 | Command shell support for UNC paths can be enabled by setting the  |
 | Windows registry key DisableUNCCheck.                              |
 +--------------------------------------------------------------------+


 +--------------------------------------------------------------------+
 |                                                                    |
 |                    CFX Command Language Upgrade                    |
 |                                                                    |
 +--------------------------------------------------------------------+

 Added /SIMULATION CONTROL/EXECUTION CONTROL/EXECUTABLE SELECTION/Double
 Precision = Off.
 

 +--------------------------------------------------------------------+
 |                                                                    |
 |                    CFX Command Language for Run                    |
 |                                                                    |
 +--------------------------------------------------------------------+

 LIBRARY:
   CEL:
     EXPRESSIONS:
       DeltaT = probe(T)@MP3-273.15[K]
     END
   END
   MATERIAL: PE100RC
     Material Group = CHT Solids
     Option = Pure Substance
     Thermodynamic State = Solid
     PROPERTIES:
       Option = General Material
       EQUATION OF STATE:
         Density = 960 [kg m^-3]
         Molar Mass = 1.0 [kg kmol^-1]
         Option = Value
       END
       SPECIFIC HEAT CAPACITY:
         Option = Value
         Specific Heat Capacity = 1900 [J kg^-1 K^-1]
       END
       THERMAL CONDUCTIVITY:
         Option = Value
         Thermal Conductivity = 0.38 [W m^-1 K^-1]
       END
     END
   END
   MATERIAL: Water Glycol Mixture
     Material Description = Water (liquid)
     Material Group = Water Data,Constant Property Liquids
     Option = Pure Substance
     Thermodynamic State = Liquid
     PROPERTIES:
       Option = General Material
       EQUATION OF STATE:
         Density = 1042 [kg m^-3]
         Molar Mass = 18.02 [kg kmol^-1]
         Option = Value
       END
       SPECIFIC HEAT CAPACITY:
         Option = Value
         Specific Heat Capacity = 3481 [J kg^-1 K^-1]
         Specific Heat Type = Constant Pressure
       END
       REFERENCE STATE:
         Option = Specified Point
         Reference Pressure = 1 [atm]
         Reference Specific Enthalpy = 0.0 [J/kg]
         Reference Specific Entropy = 0.0 [J/kg/K]
         Reference Temperature = 0 [C]
       END
       DYNAMIC VISCOSITY:
         Dynamic Viscosity = 8.899E-4 [kg m^-1 s^-1]
         Option = Value
       END
       THERMAL CONDUCTIVITY:
         Option = Value
         Thermal Conductivity = 0.6069 [W m^-1 K^-1]
       END
       ABSORPTION COEFFICIENT:
         Absorption Coefficient = 1.0 [m^-1]
         Option = Value
       END
       SCATTERING COEFFICIENT:
         Option = Value
         Scattering Coefficient = 0.0 [m^-1]
       END
       REFRACTIVE INDEX:
         Option = Value
         Refractive Index = 1.0 [m m^-1]
       END
       THERMAL EXPANSIVITY:
         Option = Value
         Thermal Expansivity = 2.57E-04 [K^-1]
       END
     END
   END
 END
 FLOW: Flow Analysis 1
   SOLUTION UNITS:
     Angle Units = [rad]
     Length Units = [m]
     Mass Units = [kg]
     Solid Angle Units = [sr]
     Temperature Units = [K]
     Time Units = [s]
   END
   ANALYSIS TYPE:
     Option = Steady State
     EXTERNAL SOLVER COUPLING:
       Option = None
     END
   END
   DOMAIN: FluidDom
     Coord Frame = Coord 0
     Domain Type = Fluid
     Location = B446
     BOUNDARY: Default Fluid Solid Interface Side 1
       Boundary Type = INTERFACE
       Location = F449.446,F450.446,F452.446,F453.446,F454.446
       BOUNDARY CONDITIONS:
         HEAT TRANSFER:
           Option = Conservative Interface Flux
         END
         MASS AND MOMENTUM:
           Option = No Slip Wall
         END
         WALL ROUGHNESS:
           Option = Smooth Wall
         END
       END
     END
     BOUNDARY: Domain Interface 1 Side 1 1
       Boundary Type = INTERFACE
       Location = FluidSym01
       BOUNDARY CONDITIONS:
         HEAT TRANSFER:
           Option = Conservative Interface Flux
         END
         MASS AND MOMENTUM:
           Option = Conservative Interface Flux
         END
         TURBULENCE:
           Option = Conservative Interface Flux
         END
       END
     END
     BOUNDARY: Domain Interface 2 Side 1
       Boundary Type = INTERFACE
       Location = FluidSym02
       BOUNDARY CONDITIONS:
         HEAT TRANSFER:
           Option = Conservative Interface Flux
         END
         MASS AND MOMENTUM:
           Option = Conservative Interface Flux
         END
         TURBULENCE:
           Option = Conservative Interface Flux
         END
       END
     END
     BOUNDARY: Inlet
       Boundary Type = INLET
       Location = F447.446
       BOUNDARY CONDITIONS:
         FLOW REGIME:
           Option = Subsonic
         END
         HEAT TRANSFER:
           Option = Static Temperature
           Static Temperature = 273.15 [K]
         END
         MASS AND MOMENTUM:
           Normal Speed = 0.05 [m s^-1]
           Option = Normal Speed
         END
         TURBULENCE:
           Option = Medium Intensity and Eddy Viscosity Ratio
         END
       END
     END
     BOUNDARY: Outlet
       Boundary Type = OUTLET
       Location = F451.446
       BOUNDARY CONDITIONS:
         FLOW REGIME:
           Option = Subsonic
         END
         MASS AND MOMENTUM:
           Normal Speed = 0.05 [m s^-1]
           Option = Normal Speed
         END
       END
     END
     DOMAIN MODELS:
       BUOYANCY MODEL:
         Option = Non Buoyant
       END
       DOMAIN MOTION:
         Option = Stationary
       END
       MESH DEFORMATION:
         Option = None
       END
       REFERENCE PRESSURE:
         Reference Pressure = 1 [atm]
       END
     END
     FLUID DEFINITION: Fluid 1
       Material = Water Glycol Mixture
       Option = Material Library
       MORPHOLOGY:
         Option = Continuous Fluid
       END
     END
     FLUID MODELS:
       COMBUSTION MODEL:
         Option = None
       END
       HEAT TRANSFER MODEL:
         Option = Thermal Energy
       END
       THERMAL RADIATION MODEL:
         Option = None
       END
       TURBULENCE MODEL:
         Option = k epsilon
       END
       TURBULENT WALL FUNCTIONS:
         Option = Scalable
       END
     END
     SOURCE POINT: Origin
       Cartesian Coordinates = 0.0[m],0.0[m],0.0[m]
       Option = Cartesian Coordinates
     END
   END
   DOMAIN: TubeDom
     Coord Frame = Coord 0
     Domain Type = Solid
     Location = B378,B662
     BOUNDARY: Default Fluid Solid Interface Side 2
       Boundary Type = INTERFACE
       Location = \
         F379.378,F380.378,F381.378,F382.378,F383.378,F666.662,F668.662,F670.6\
         62,F672.662,F674.662
       BOUNDARY CONDITIONS:
         HEAT TRANSFER:
           Option = Conservative Interface Flux
         END
       END
     END
     BOUNDARY: Domain Interface 1 Side 1
       Boundary Type = INTERFACE
       Location = TubeIntFace01
       BOUNDARY CONDITIONS:
         HEAT TRANSFER:
           Option = Conservative Interface Flux
         END
       END
     END
     BOUNDARY: Domain Interface 1 Side 2
       Boundary Type = INTERFACE
       Location = TubeIntFace02
       BOUNDARY CONDITIONS:
         HEAT TRANSFER:
           Option = Conservative Interface Flux
         END
       END
     END
     BOUNDARY: Domain Interface 2 Side 2
       Boundary Type = INTERFACE
       Location = TubeSymFace01
       BOUNDARY CONDITIONS:
         HEAT TRANSFER:
           Option = Conservative Interface Flux
         END
       END
     END
     BOUNDARY: SymmetrieSolid Side 1
       Boundary Type = INTERFACE
       Location = TubeSymFace02
       BOUNDARY CONDITIONS:
         HEAT TRANSFER:
           Option = Conservative Interface Flux
         END
       END
     END
     BOUNDARY: TubeDom Default
       Boundary Type = WALL
       Location = \
         F390.378,F391.378,F392.378,F393.378,F394.378,F676.662,F677.662,F678.6\
         62,F679.662,F680.662
       BOUNDARY CONDITIONS:
         HEAT TRANSFER:
           Option = Adiabatic
         END
       END
     END
     BOUNDARY: TubeOuterWallAdia
       Boundary Type = WALL
       Location = TubeOuterWall01
       BOUNDARY CONDITIONS:
         HEAT TRANSFER:
           Option = Adiabatic
         END
       END
     END
     BOUNDARY: TubeOuterWallHeatex
       Boundary Type = WALL
       Location = TubeOuterWall02
       BOUNDARY CONDITIONS:
         HEAT TRANSFER:
           Fixed Temperature = 283.15 [K]
           Option = Fixed Temperature
         END
       END
     END
     DOMAIN MODELS:
       DOMAIN MOTION:
         Option = Stationary
       END
       MESH DEFORMATION:
         Option = None
       END
     END
     SOLID DEFINITION: Solid 1
       Material = PE100RC
       Option = Material Library
       MORPHOLOGY:
         Option = Continuous Solid
       END
     END
     SOLID MODELS:
       HEAT TRANSFER MODEL:
         Option = Thermal Energy
       END
       THERMAL RADIATION MODEL:
         Option = None
       END
     END
   END
   DOMAIN INTERFACE: Default Fluid Solid Interface
     Boundary List1 = Default Fluid Solid Interface Side 1
     Boundary List2 = Default Fluid Solid Interface Side 2
     Interface Type = Fluid Solid
     INTERFACE MODELS:
       Option = General Connection
       FRAME CHANGE:
         Option = None
       END
       PITCH CHANGE:
         Option = None
       END
     END
     MESH CONNECTION:
       Option = Automatic
     END
   END
   DOMAIN INTERFACE: Domain Interface 1
     Boundary List1 = Domain Interface 1 Side 1
     Boundary List2 = Domain Interface 1 Side 2
     Interface Type = Solid Solid
     INTERFACE MODELS:
       Option = General Connection
       FRAME CHANGE:
         Option = None
       END
       PITCH CHANGE:
         Option = None
       END
     END
     MESH CONNECTION:
       Option = Automatic
     END
   END
   DOMAIN INTERFACE: SymmetrieFluid
     Boundary List1 = Domain Interface 1 Side 1 1
     Boundary List2 = Domain Interface 2 Side 1
     Interface Type = Fluid Fluid
     INTERFACE MODELS:
       Option = Rotational Periodicity
       AXIS DEFINITION:
         Option = Coordinate Axis
         Rotation Axis = Coord 0.1
       END
     END
     MESH CONNECTION:
       Option = GGI
       INTERSECTION CONTROL:
         Option = Direct
         Periodic Axial Radial Tolerance = 0.001
       END
     END
   END
   DOMAIN INTERFACE: SymmetrieSolid
     Boundary List1 = Domain Interface 2 Side 2
     Boundary List2 = SymmetrieSolid Side 1
     Interface Type = Solid Solid
     INTERFACE MODELS:
       Option = Rotational Periodicity
       AXIS DEFINITION:
         Option = Coordinate Axis
         Rotation Axis = Coord 0.1
       END
     END
     MESH CONNECTION:
       Option = Automatic
       INTERSECTION CONTROL:
         Option = Direct
         Periodic Axial Radial Tolerance = 0.0001
       END
     END
   END
   OUTPUT CONTROL:
     MONITOR OBJECTS:
       MONITOR BALANCES:
         Option = Full
       END
       MONITOR FORCES:
         Option = Full
       END
       MONITOR PARTICLES:
         Option = Full
       END
       MONITOR POINT: MP1
         Cartesian Coordinates = 2.5 [m], 0 [m], 0 [m]
         Coord Frame = Coord 0
         Option = Cartesian Coordinates
         Output Variables List = Courant Number,Pressure,Temperature,Velocity
         MONITOR LOCATION CONTROL:
           Interpolation Type = Nearest Vertex
         END
         POSITION UPDATE FREQUENCY:
           Option = Initial Mesh Only
         END
       END
       MONITOR POINT: MP2
         Cartesian Coordinates = 2.5 [m], 0.012 [m], 0 [m]
         Coord Frame = Coord 0
         Option = Cartesian Coordinates
         Output Variables List = Courant Number,Pressure,Temperature,Velocity
         MONITOR LOCATION CONTROL:
           Interpolation Type = Nearest Vertex
         END
         POSITION UPDATE FREQUENCY:
           Option = Initial Mesh Only
         END
       END
       MONITOR POINT: MP3
         Cartesian Coordinates = 2.5 [m], 0.024 [m], 0 [m]
         Coord Frame = Coord 0
         Option = Cartesian Coordinates
         Output Variables List = Courant Number,Pressure,Temperature,Velocity
         MONITOR LOCATION CONTROL:
           Interpolation Type = Nearest Vertex
         END
         POSITION UPDATE FREQUENCY:
           Option = Initial Mesh Only
         END
       END
       MONITOR POINT: MP3_1
         Coord Frame = Coord 0
         Expression Value = DeltaT
         Option = Expression
       END
       MONITOR RESIDUALS:
         Option = Full
       END
       MONITOR TOTALS:
         Option = Full
       END
     END
     RESULTS:
       File Compression Level = Default
       Option = Standard
     END
   END
   SOLVER CONTROL:
     Turbulence Numerics = First Order
     ADVECTION SCHEME:
       Option = High Resolution
     END
     CONVERGENCE CONTROL:
       Length Scale Option = Conservative
       Maximum Number of Iterations = 200
       Minimum Number of Iterations = 1
       Solid Timescale Control = Auto Timescale
       Timescale Control = Auto Timescale
       Timescale Factor = 1.0
     END
     CONVERGENCE CRITERIA:
       Residual Target = 0.000001
       Residual Type = RMS
     END
     DYNAMIC MODEL CONTROL:
       Global Dynamic Model Control = On
     END
   END
 END
 COMMAND FILE:
   Version = 16.0
   Results Version = 15.0.7
 END
 SIMULATION CONTROL:
   EXECUTION CONTROL:
     EXECUTABLE SELECTION:
       Double Precision = Off
     END
     PARALLEL HOST LIBRARY:
       HOST DEFINITION: rd000d3a21faed
         Host Architecture String = winnt-amd64
         Installation Root = \\hsransys.file.core.windows.net\main\apps\ANSYS \
           Inc\v%v\CFX
       END
     END
     PARTITIONER STEP CONTROL:
       PARTITIONING TYPE:
         Option = MeTiS
         MeTiS Type = k-way
         Partition Size Rule = Automatic
         Partition Weight Factors = 0.00391, 0.00391, 0.00391, 0.00391, \
           0.00391, 0.00391, 0.00391, 0.00391, 0.00391, 0.00391, 0.00391, \
           0.00391, 0.00391, 0.00391, 0.00391, 0.00391, 0.00391, 0.00391, \
           0.00391, 0.00391, 0.00391, 0.00391, 0.00391, 0.00391, 0.00391, \
           0.00391, 0.00391, 0.00391, 0.00391, 0.00391, 0.00391, 0.00391, \
           0.00391, 0.00391, 0.00391, 0.00391, 0.00391, 0.00391, 0.00391, \
           0.00391, 0.00391, 0.00391, 0.00391, 0.00391, 0.00391, 0.00391, \
           0.00391, 0.00391, 0.00391, 0.00391, 0.00391, 0.00391, 0.00391, \
           0.00391, 0.00391, 0.00391, 0.00391, 0.00391, 0.00391, 0.00391, \
           0.00391, 0.00391, 0.00391, 0.00391, 0.00391, 0.00391, 0.00391, \
           0.00391, 0.00391, 0.00391, 0.00391, 0.00391, 0.00391, 0.00391, \
           0.00391, 0.00391, 0.00391, 0.00391, 0.00391, 0.00391, 0.00391, \
           0.00391, 0.00391, 0.00391, 0.00391, 0.00391, 0.00391, 0.00391, \
           0.00391, 0.00391, 0.00391, 0.00391, 0.00391, 0.00391, 0.00391, \
           0.00391, 0.00391, 0.00391, 0.00391, 0.00391, 0.00391, 0.00391, \
           0.00391, 0.00391, 0.00391, 0.00391, 0.00391, 0.00391, 0.00391, \
           0.00391, 0.00391, 0.00391, 0.00391, 0.00391, 0.00391, 0.00391, \
           0.00391, 0.00391, 0.00391, 0.00391, 0.00391, 0.00391, 0.00391, \
           0.00391, 0.00391, 0.00391, 0.00391, 0.00391, 0.00391, 0.00391, \
           0.00391, 0.00391, 0.00391, 0.00391, 0.00391, 0.00391, 0.00391, \
           0.00391, 0.00391, 0.00391, 0.00391, 0.00391, 0.00391, 0.00391, \
           0.00391, 0.00391, 0.00391, 0.00391, 0.00391, 0.00391, 0.00391, \
           0.00391, 0.00391, 0.00391, 0.00391, 0.00391, 0.00391, 0.00391, \
           0.00391, 0.00391, 0.00391, 0.00391, 0.00391, 0.00391, 0.00391, \
           0.00391, 0.00391, 0.00391, 0.00391, 0.00391, 0.00391, 0.00391, \
           0.00391, 0.00391, 0.00391, 0.00391, 0.00391, 0.00391, 0.00391, \
           0.00391, 0.00391, 0.00391, 0.00391, 0.00391, 0.00391, 0.00391, \
           0.00391, 0.00391, 0.00391, 0.00391, 0.00391, 0.00391, 0.00391, \
           0.00391, 0.00391, 0.00391, 0.00391, 0.00391, 0.00391, 0.00391, \
           0.00391, 0.00391, 0.00391, 0.00391, 0.00391, 0.00391, 0.00391, \
           0.00391, 0.00391, 0.00391, 0.00391, 0.00391, 0.00391, 0.00391, \
           0.00391, 0.00391, 0.00391, 0.00391, 0.00391, 0.00391, 0.00391, \
           0.00391, 0.00391, 0.00391, 0.00391, 0.00391, 0.00391, 0.00391, \
           0.00391, 0.00391, 0.00391, 0.00391, 0.00391, 0.00391, 0.00391, \
           0.00391, 0.00391, 0.00391, 0.00391, 0.00391, 0.00391, 0.00391, \
           0.00391, 0.00391, 0.00391, 0.00391, 0.00391, 0.00391, 0.00391, \
           0.00391, 0.00391, 0.00391, 0.00391, 0.00391, 0.00391, 0.00391
       END
     END
     RUN DEFINITION:
       Solver Input File = \
         \\10.10.13.6\C\Resources\directory\3301acebc8f4463d990a819988261bb5.H\
         SR.AzureEE.HpcWorkerRole.jobdata\job-3\pipe04.def
       Run Mode = Full
     END
     SOLVER STEP CONTROL:
       PARALLEL ENVIRONMENT:
         Start Method = MSMPI2
         Number of Processes = 256
         Parallel Host List = rd000d3a21faed*256
       END
     END
   END
 END
 

 +--------------------------------------------------------------------+
 |                                                                    |
 |                            Partitioning                            |
 |                                                                    |
 +--------------------------------------------------------------------+




 +--------------------------------------------------------------------+
 |                                                                    |
 |                 ANSYS(R) CFX(R) Partitioner 15.0.7                 |
 |                                                                    |
 | Version 2014.04.10-23.00-131675     Thu Apr 10 23:23:37 GMTDT 2014 |
 |                                                                    |
 |                        Executable Attributes                       |
 |                                                                    |
 |          single-64bit-int32-supfort-optimised-noprof-lcomp         |
 |                                                                    |
 | (C) 2014 ANSYS, Inc.                                               |
 |                                                                    |
 | All rights reserved. Unauthorized use, distribution or duplication |
 | is prohibited. This product is subject to U.S. laws governing      |
 | export and re-export. For full Legal Notice, see documentation.    |
 +--------------------------------------------------------------------+




 +--------------------------------------------------------------------+
 |                  Job Information at Start of Run                   |
 +--------------------------------------------------------------------+

 Run mode:       partitioning run

 +------------------------------+------+--------+----------+----------+
 | Host                         | Mesh |  PID   |     Job Started     |
 |                              | Part |        | DD/MM/YY | hh:mm:ss |
 +------------------------------+------+--------+----------+----------+
 | RD000D3A21FAED               |    1 |   2376 | 29/05/15 | 07:03:50 |
 +------------------------------+------+--------+----------+----------+


 +--------------------------------------------------------------------+
 |        Memory Allocated for Run  (Actual usage may be less)        |
 +--------------------------------------------------------------------+

           | Real       | Integer    | Character | Logical  | Double
 ----------+------------+------------+-----------+----------+----------
 Mwords    |      45.89 |     108.66 |      3.39 |     0.12 |     1.20
 Mbytes    |     175.07 |     414.49 |      3.24 |     0.46 |     9.16
 ----------+------------+------------+-----------+----------+----------


 +--------------------------------------------------------------------+
 |                  Host Memory Information (Mbytes)                  |
 +--------------------------------------------------------------------+
 |          Host           |     System     |   Allocated    |   %    |
 +-------------------------+----------------+----------------+--------+
 | RD000D3A21FAED          |     57343.55   |       602.41   |   1.05 |
 +-------------------------+----------------+----------------+--------+

 +--------------------------------------------------------------------+
 |                          Mesh Statistics                           |
 +--------------------------------------------------------------------+

 Domain Name : FluidDom

     Total Number of Nodes                                =     2101400

     Total Number of Elements                             =     1972500
         Total Number of Prisms                           =       12000
         Total Number of Hexahedrons                      =     1960500

     Total Number of Faces                                =      266630

 Domain Name : TubeDom

     Total Number of Nodes                                =      111636

     Total Number of Elements                             =       65210
         Total Number of Hexahedrons                      =       65210

     Total Number of Faces                                =       89240
 
 Global Statistics :

     Global Number of Nodes                               =     2213036

     Global Number of Elements                            =     2037710
         Total Number of Prisms                           =       12000
         Total Number of Hexahedrons                      =     2025710

     Global Number of Faces                               =      355870

 Domain Interface Name : Default Fluid Solid Interface

     Discretization type                                  =         GGI
     Intersection type                                    =      Direct
     Non-overlap area fraction on side 1                  =    1.60E-02
     Non-overlap area fraction on side 2                  =    1.55E-02

 Domain Interface Name : Domain Interface 1

     Discretization type                                  =         GGI
     Intersection type                                    =      Direct
     Non-overlap area fraction on side 1                  =    2.18E-02
     Non-overlap area fraction on side 2                  =    8.24E-02

 Domain Interface Name : SymmetrieFluid

     Discretization type                                  =         GGI
     Intersection type                                    = Topological

 Domain Interface Name : SymmetrieSolid

     Discretization type                                  =         1:1
     Intersection type                                    =      Direct

 +--------------------------------------------------------------------+
 |                     Vertex Based Partitioning                      |
 +--------------------------------------------------------------------+

 Partitioning of domain: FluidDom

 - Partitioning tool:       MeTiS multilevel k-way algorithm
 - Number of partitions:           256
 - Number of graph-nodes:      2101400
 - Number of graph-edges:     12890790

 Partitioning of domain: TubeDom

 - Partitioning tool:       MeTiS multilevel k-way algorithm
 - Number of partitions:           256
 - Number of graph-nodes:       107514
 - Number of graph-edges:       561676

 +--------------------------------------------------------------------+
 |                      Partitioning Information                      |
 +--------------------------------------------------------------------+

 Partitioning information for domain: FluidDom

        +------------------+------------------------+-----------------+
        |     Elements     |        Vertices        |     Faces       |
 +------+------------------+------------------------+-----------------+
 | Part |   Number     %   |   Number     %   %Ovlp |  Number     %   |
 +------+------------------+------------------------+-----------------+
 | Full |   1972500        |   2101400              |   266630        |
 +------+------------------+------------------------+-----------------+
 |    1 |     10368    0.4 |     12501    0.4  28.6 |     1032    0.2 |
 |    2 |      8913    0.4 |     10986    0.4  24.7 |     1699    0.4 |
 |    3 |      8826    0.4 |     10922    0.4  26.9 |     1496    0.3 |
 |    4 |      8854    0.4 |     10955    0.4  27.1 |     1431    0.3 |
 |    5 |     10137    0.4 |     12506    0.4  30.1 |     1259    0.3 |
 |    6 |      9100    0.4 |     11297    0.4  28.7 |     1553    0.3 |
 |    7 |      7854    0.3 |     10037    0.3  24.0 |     2525    0.6 |
 |    8 |      9699    0.4 |     11844    0.4  27.1 |     1441    0.3 |
 |    9 |      8857    0.4 |     11213    0.4  29.8 |     1570    0.4 |
 |   10 |      9692    0.4 |     11983    0.4  28.7 |     1439    0.3 |
 |   11 |      8870    0.4 |     10816    0.4  24.1 |     1479    0.3 |
 |   12 |     10020    0.4 |     12358    0.4  30.6 |     1286    0.3 |
 |   13 |     10028    0.4 |     12304    0.4  29.5 |     1236    0.3 |
 |   14 |      9988    0.4 |     12123    0.4  27.9 |     1261    0.3 |
 |   15 |      7683    0.3 |      9694    0.3  23.4 |     2224    0.5 |
 |   16 |      8321    0.3 |     10473    0.4  26.6 |     1990    0.4 |
 |   17 |     10028    0.4 |     12260    0.4  28.5 |     1269    0.3 |
 |   18 |      9716    0.4 |     12217    0.4  30.6 |     1602    0.4 |
 |   19 |      9727    0.4 |     12001    0.4  28.3 |     1561    0.4 |
 |   20 |      7661    0.3 |      9746    0.3  24.7 |     2280    0.5 |
 |   21 |      8746    0.4 |     10686    0.4  23.9 |     1455    0.3 |
 |   22 |      9239    0.4 |     11437    0.4  29.0 |     1334    0.3 |
 |   23 |      9500    0.4 |     11550    0.4  27.3 |     1334    0.3 |
 |   24 |     10154    0.4 |     12530    0.4  30.2 |     1225    0.3 |
 |   25 |      8978    0.4 |     10838    0.4  24.5 |     1231    0.3 |
 |   26 |      9282    0.4 |     11705    0.4  31.2 |     1520    0.3 |
 |   27 |      9292    0.4 |     11432    0.4  27.6 |     1397    0.3 |
 |   28 |      8926    0.4 |     11140    0.4  28.2 |     1476    0.3 |
 |   29 |      9922    0.4 |     12213    0.4  29.2 |     1358    0.3 |
 |   30 |      9774    0.4 |     11982    0.4  28.8 |     1265    0.3 |
 |   31 |      8174    0.3 |     10356    0.3  25.6 |     2230    0.5 |
 |   32 |      7778    0.3 |      9869    0.3  25.2 |     2197    0.5 |
 |   33 |      8742    0.4 |     11004    0.4  26.8 |     2050    0.5 |
 |   34 |      7916    0.3 |      9981    0.3  23.9 |     2255    0.5 |
 |   35 |     10111    0.4 |     12275    0.4  28.6 |     1087    0.2 |
 |   36 |      9933    0.4 |     12274    0.4  29.5 |     1423    0.3 |
 |   37 |      9178    0.4 |     11466    0.4  28.1 |     1667    0.4 |
 |   38 |      9108    0.4 |     10924    0.4  23.4 |     1179    0.3 |
 |   39 |      9464    0.4 |     11887    0.4  29.3 |     1665    0.4 |
 |   40 |      9168    0.4 |     11106    0.4  25.1 |     1252    0.3 |
 |   41 |      6998    0.3 |      9206    0.3  24.6 |     2735    0.6 |
 |   42 |      9017    0.4 |     11191    0.4  27.7 |     1610    0.4 |
 |   43 |      9445    0.4 |     11504    0.4  28.0 |     1280    0.3 |
 |   44 |      9343    0.4 |     11344    0.4  26.5 |     1337    0.3 |
 |   45 |      8775    0.4 |     10831    0.4  25.7 |     1496    0.3 |
 |   46 |     10365    0.4 |     12714    0.4  30.9 |     1197    0.3 |
 |   47 |      8915    0.4 |     10987    0.4  24.4 |     1704    0.4 |
 |   48 |      9652    0.4 |     12103    0.4  32.1 |     1354    0.3 |
 |   49 |      9997    0.4 |     12310    0.4  29.1 |     1387    0.3 |
 |   50 |     10225    0.4 |     12310    0.4  27.5 |     1063    0.2 |
 |   51 |      7926    0.3 |     10106    0.3  26.0 |     2232    0.5 |
 |   52 |      8407    0.4 |     10588    0.4  26.4 |     2097    0.5 |
 |   53 |     10000    0.4 |     12146    0.4  28.5 |     1088    0.2 |
 |   54 |      8160    0.3 |     10578    0.4  28.8 |     1971    0.4 |
 |   55 |      9651    0.4 |     11767    0.4  28.4 |     1026    0.2 |
 |   56 |      8687    0.4 |     11033    0.4  29.3 |     1712    0.4 |
 |   57 |      8626    0.4 |     10743    0.4  25.8 |     1934    0.4 |
 |   58 |      7825    0.3 |      9892    0.3  24.8 |     2230    0.5 |
 |   59 |      9987    0.4 |     12187    0.4  28.2 |     1287    0.3 |
 |   60 |      9983    0.4 |     12309    0.4  29.2 |     1385    0.3 |
 |   61 |      8671    0.4 |     10974    0.4  28.9 |     1711    0.4 |
 |   62 |     10308    0.4 |     12511    0.4  29.0 |     1074    0.2 |
 |   63 |      8504    0.4 |     10475    0.4  24.8 |     1495    0.3 |
 |   64 |      9521    0.4 |     11651    0.4  28.2 |     1223    0.3 |
 |   65 |      9542    0.4 |     11661    0.4  28.4 |     1301    0.3 |
 |   66 |      9550    0.4 |     11560    0.4  27.7 |     1080    0.2 |
 |   67 |      8347    0.4 |     10544    0.4  25.2 |     2270    0.5 |
 |   68 |      7728    0.3 |      9931    0.3  25.5 |     2393    0.5 |
 |   69 |      9305    0.4 |     11485    0.4  27.6 |     1496    0.3 |
 |   70 |      8726    0.4 |     10958    0.4  27.9 |     1646    0.4 |
 |   71 |      8723    0.4 |     10892    0.4  25.7 |     1996    0.4 |
 |   72 |      9304    0.4 |     11444    0.4  27.7 |     1370    0.3 |
 |   73 |      9364    0.4 |     11855    0.4  31.9 |     1610    0.4 |
 |   74 |      7299    0.3 |      9274    0.3  22.5 |     2340    0.5 |
 |   75 |     10061    0.4 |     12486    0.4  30.4 |     1377    0.3 |
 |   76 |     10251    0.4 |     12444    0.4  30.6 |      874    0.2 |
 |   77 |     10079    0.4 |     12306    0.4  30.2 |     1039    0.2 |
 |   78 |      8851    0.4 |     10885    0.4  24.3 |     1730    0.4 |
 |   79 |      9086    0.4 |     11200    0.4  25.5 |     1632    0.4 |
 |   80 |      9153    0.4 |     11298    0.4  25.9 |     1612    0.4 |
 |   81 |      7412    0.3 |      9653    0.3  25.1 |     2624    0.6 |
 |   82 |      8545    0.4 |     10786    0.4  28.4 |     1926    0.4 |
 |   83 |      9900    0.4 |     12122    0.4  28.2 |     1364    0.3 |
 |   84 |      9967    0.4 |     12230    0.4  29.3 |     1282    0.3 |
 |   85 |      9372    0.4 |     11382    0.4  26.6 |     1152    0.3 |
 |   86 |      8382    0.4 |     10629    0.4  27.2 |     1816    0.4 |
 |   87 |      9555    0.4 |     11744    0.4  29.1 |     1212    0.3 |
 |   88 |      9335    0.4 |     11732    0.4  29.1 |     1668    0.4 |
 |   89 |     10046    0.4 |     12301    0.4  28.9 |     1301    0.3 |
 |   90 |      8470    0.4 |     10575    0.4  25.2 |     2056    0.5 |
 |   91 |      7998    0.3 |     10248    0.3  27.2 |     2212    0.5 |
 |   92 |     10070    0.4 |     12487    0.4  31.1 |     1319    0.3 |
 |   93 |     10267    0.4 |     12215    0.4  26.3 |      832    0.2 |
 |   94 |      8291    0.3 |     10594    0.4  27.9 |     1915    0.4 |
 |   95 |      9189    0.4 |     11192    0.4  26.8 |     1098    0.2 |
 |   96 |      9773    0.4 |     12279    0.4  30.8 |     1578    0.4 |
 |   97 |      9287    0.4 |     11425    0.4  28.0 |     1398    0.3 |
 |   98 |     10310    0.4 |     12747    0.4  31.8 |     1225    0.3 |
 |   99 |      9908    0.4 |     12038    0.4  27.3 |     1341    0.3 |
 |  100 |      7545    0.3 |      9625    0.3  23.5 |     2463    0.6 |
 |  101 |      9108    0.4 |     11082    0.4  26.1 |     1154    0.3 |
 |  102 |      8523    0.4 |     10761    0.4  27.7 |     1713    0.4 |
 |  103 |      8356    0.4 |     10716    0.4  28.7 |     1857    0.4 |
 |  104 |     10410    0.4 |     12801    0.4  31.1 |     1158    0.3 |
 |  105 |      7578    0.3 |      9579    0.3  22.0 |     2370    0.5 |
 |  106 |      9869    0.4 |     12039    0.4  27.5 |     1431    0.3 |
 |  107 |     10180    0.4 |     12546    0.4  30.4 |     1305    0.3 |
 |  108 |      9114    0.4 |     11169    0.4  26.3 |     1560    0.4 |
 |  109 |      9198    0.4 |     10951    0.4  24.1 |      965    0.2 |
 |  110 |      8427    0.4 |     10717    0.4  27.5 |     1844    0.4 |
 |  111 |      8789    0.4 |     10904    0.4  24.7 |     1750    0.4 |
 |  112 |      9974    0.4 |     12218    0.4  30.8 |     1110    0.3 |
 |  113 |      9808    0.4 |     12002    0.4  28.3 |     1285    0.3 |
 |  114 |      8266    0.3 |     10442    0.4  27.1 |     2002    0.5 |
 |  115 |      7444    0.3 |      9333    0.3  20.0 |     2310    0.5 |
 |  116 |      9648    0.4 |     11701    0.4  24.6 |     1488    0.3 |
 |  117 |      8507    0.4 |     10834    0.4  28.7 |     1836    0.4 |
 |  118 |      9848    0.4 |     11687    0.4  24.3 |      917    0.2 |
 |  119 |      8931    0.4 |     10946    0.4  24.2 |     1674    0.4 |
 |  120 |      9042    0.4 |     11413    0.4  27.6 |     1889    0.4 |
 |  121 |      8673    0.4 |     10520    0.4  23.6 |     1449    0.3 |
 |  122 |     10196    0.4 |     12638    0.4  31.5 |     1262    0.3 |
 |  123 |      9777    0.4 |     11971    0.4  29.2 |     1215    0.3 |
 |  124 |      8327    0.3 |     10522    0.4  26.8 |     1771    0.4 |
 |  125 |      7652    0.3 |      9608    0.3  23.3 |     2177    0.5 |
 |  126 |      9820    0.4 |     12085    0.4  28.9 |     1463    0.3 |
 |  127 |     10154    0.4 |     12333    0.4  28.4 |     1145    0.3 |
 |  128 |      8362    0.4 |     10606    0.4  25.7 |     2275    0.5 |
 |  129 |      9955    0.4 |     12739    0.4  33.3 |     2050    0.5 |
 |  130 |      9617    0.4 |     12180    0.4  32.7 |     1709    0.4 |
 |  131 |     10264    0.4 |     12871    0.4  34.4 |     1515    0.3 |
 |  132 |      9319    0.4 |     11947    0.4  31.0 |     2161    0.5 |
 |  133 |      8053    0.3 |     10726    0.4  32.4 |     2767    0.6 |
 |  134 |      9661    0.4 |     12172    0.4  32.7 |     1744    0.4 |
 |  135 |      8449    0.4 |     10923    0.4  29.1 |     2624    0.6 |
 |  136 |     10296    0.4 |     12893    0.4  32.2 |     1736    0.4 |
 |  137 |      8614    0.4 |     11135    0.4  30.8 |     2145    0.5 |
 |  138 |      9497    0.4 |     11921    0.4  31.4 |     1553    0.3 |
 |  139 |     10432    0.4 |     13102    0.4  33.5 |     1691    0.4 |
 |  140 |     10118    0.4 |     12782    0.4  34.5 |     1591    0.4 |
 |  141 |      9366    0.4 |     11773    0.4  28.0 |     2201    0.5 |
 |  142 |      7810    0.3 |     10292    0.3  28.9 |     2846    0.6 |
 |  143 |      9895    0.4 |     12364    0.4  28.9 |     1983    0.4 |
 |  144 |      8670    0.4 |     11399    0.4  32.1 |     2366    0.5 |
 |  145 |     10534    0.4 |     13288    0.4  34.2 |     1659    0.4 |
 |  146 |      9727    0.4 |     12313    0.4  32.2 |     1938    0.4 |
 |  147 |      7983    0.3 |     10777    0.4  31.3 |     3173    0.7 |
 |  148 |      9747    0.4 |     12300    0.4  31.4 |     1994    0.4 |
 |  149 |      8684    0.4 |     11388    0.4  32.8 |     2249    0.5 |
 |  150 |     10343    0.4 |     12767    0.4  31.4 |     1298    0.3 |
 |  151 |     10517    0.4 |     13222    0.4  34.4 |     1590    0.4 |
 |  152 |      9779    0.4 |     12743    0.4  35.6 |     2035    0.5 |
 |  153 |     10717    0.5 |     13347    0.4  33.2 |     1529    0.3 |
 |  154 |      9010    0.4 |     11384    0.4  30.3 |     1878    0.4 |
 |  155 |      9166    0.4 |     11741    0.4  31.9 |     1946    0.4 |
 |  156 |      9281    0.4 |     11906    0.4  32.3 |     1952    0.4 |
 |  157 |      8266    0.3 |     10797    0.4  29.2 |     2764    0.6 |
 |  158 |     10100    0.4 |     12798    0.4  32.8 |     1910    0.4 |
 |  159 |     10500    0.4 |     13257    0.4  34.5 |     1621    0.4 |
 |  160 |     10118    0.4 |     12677    0.4  31.9 |     1769    0.4 |
 |  161 |      9289    0.4 |     11488    0.4  28.6 |     1479    0.3 |
 |  162 |      9090    0.4 |     11233    0.4  28.1 |     1519    0.3 |
 |  163 |      7605    0.3 |      9984    0.3  25.8 |     2805    0.6 |
 |  164 |     10228    0.4 |     12411    0.4  28.6 |     1080    0.2 |
 |  165 |      8707    0.4 |     11201    0.4  30.7 |     1861    0.4 |
 |  166 |      8846    0.4 |     10703    0.4  24.0 |     1264    0.3 |
 |  167 |      8556    0.4 |     10676    0.4  26.5 |     1677    0.4 |
 |  168 |      9823    0.4 |     12009    0.4  30.1 |     1085    0.2 |
 |  169 |      8028    0.3 |     10487    0.4  29.2 |     2717    0.6 |
 |  170 |      8098    0.3 |     10556    0.4  29.6 |     2646    0.6 |
 |  171 |      9742    0.4 |     12262    0.4  32.6 |     1723    0.4 |
 |  172 |     10057    0.4 |     12496    0.4  30.6 |     1600    0.4 |
 |  173 |      8939    0.4 |     11028    0.4  26.9 |     1411    0.3 |
 |  174 |     10284    0.4 |     12540    0.4  29.3 |     1173    0.3 |
 |  175 |     10055    0.4 |     12272    0.4  28.9 |     1205    0.3 |
 |  176 |      8526    0.4 |     10856    0.4  27.3 |     1910    0.4 |
 |  177 |      8735    0.4 |     10813    0.4  26.4 |     1532    0.3 |
 |  178 |      8828    0.4 |     10924    0.4  26.7 |     1474    0.3 |
 |  179 |      9649    0.4 |     11795    0.4  27.2 |     1372    0.3 |
 |  180 |      9424    0.4 |     11718    0.4  28.5 |     1549    0.3 |
 |  181 |     10124    0.4 |     12326    0.4  28.6 |     1180    0.3 |
 |  182 |     10327    0.4 |     12604    0.4  29.6 |     1234    0.3 |
 |  183 |      8308    0.3 |     10360    0.3  25.7 |     1882    0.4 |
 |  184 |      8199    0.3 |     10449    0.4  27.7 |     2112    0.5 |
 |  185 |      9855    0.4 |     12054    0.4  27.9 |     1436    0.3 |
 |  186 |      9883    0.4 |     12049    0.4  27.5 |     1294    0.3 |
 |  187 |      7718    0.3 |      9788    0.3  24.2 |     2304    0.5 |
 |  188 |      8530    0.4 |     10788    0.4  27.8 |     2033    0.5 |
 |  189 |      8869    0.4 |     10990    0.4  24.9 |     1736    0.4 |
 |  190 |     10087    0.4 |     12228    0.4  28.1 |     1174    0.3 |
 |  191 |     10230    0.4 |     12607    0.4  31.0 |     1212    0.3 |
 |  192 |      8778    0.4 |     10835    0.4  24.2 |     1688    0.4 |
 |  193 |     10775    0.5 |     13539    0.5  34.5 |     1581    0.4 |
 |  194 |      9200    0.4 |     11821    0.4  30.9 |     2150    0.5 |
 |  195 |      9705    0.4 |     11999    0.4  30.6 |     1413    0.3 |
 |  196 |      9291    0.4 |     12045    0.4  32.5 |     2224    0.5 |
 |  197 |     10031    0.4 |     12534    0.4  31.2 |     1772    0.4 |
 |  198 |     10232    0.4 |     13214    0.4  36.7 |     1779    0.4 |
 |  199 |      7895    0.3 |     10386    0.3  30.0 |     2732    0.6 |
 |  200 |      9948    0.4 |     12598    0.4  33.0 |     1842    0.4 |
 |  201 |      9198    0.4 |     12004    0.4  34.6 |     2105    0.5 |
 |  202 |      9972    0.4 |     12472    0.4  33.0 |     1353    0.3 |
 |  203 |     10230    0.4 |     12917    0.4  33.1 |     1754    0.4 |
 |  204 |      9198    0.4 |     11797    0.4  32.6 |     1927    0.4 |
 |  205 |      8149    0.3 |     10596    0.4  29.6 |     2584    0.6 |
 |  206 |      8237    0.3 |     10687    0.4  29.3 |     2594    0.6 |
 |  207 |     10048    0.4 |     12536    0.4  32.3 |     1623    0.4 |
 |  208 |      9866    0.4 |     12508    0.4  34.0 |     1697    0.4 |
 |  209 |      8075    0.3 |     10466    0.4  28.5 |     2631    0.6 |
 |  210 |     10279    0.4 |     12844    0.4  32.0 |     1759    0.4 |
 |  211 |     10212    0.4 |     12707    0.4  31.5 |     1628    0.4 |
 |  212 |      8898    0.4 |     11465    0.4  30.3 |     2524    0.6 |
 |  213 |     10368    0.4 |     12993    0.4  34.4 |     1395    0.3 |
 |  214 |      8983    0.4 |     11882    0.4  35.1 |     2211    0.5 |
 |  215 |      9186    0.4 |     11687    0.4  31.7 |     1874    0.4 |
 |  216 |     10236    0.4 |     12946    0.4  34.2 |     1568    0.4 |
 |  217 |     10397    0.4 |     13247    0.4  35.1 |     1661    0.4 |
 |  218 |      9953    0.4 |     13012    0.4  36.5 |     2166    0.5 |
 |  219 |      7882    0.3 |     10445    0.4  28.6 |     3055    0.7 |
 |  220 |      9640    0.4 |     12584    0.4  36.5 |     2147    0.5 |
 |  221 |      8807    0.4 |     11550    0.4  33.0 |     2223    0.5 |
 |  222 |     10255    0.4 |     13029    0.4  34.9 |     1692    0.4 |
 |  223 |      9847    0.4 |     12562    0.4  33.5 |     1849    0.4 |
 |  224 |      9559    0.4 |     12001    0.4  31.8 |     1625    0.4 |
 |  225 |      8764    0.4 |     11305    0.4  31.8 |     2268    0.5 |
 |  226 |      8441    0.4 |     11269    0.4  34.3 |     2641    0.6 |
 |  227 |     10173    0.4 |     12825    0.4  33.8 |     1609    0.4 |
 |  228 |      8582    0.4 |     11088    0.4  30.7 |     2440    0.5 |
 |  229 |     10556    0.4 |     13359    0.4  34.7 |     1709    0.4 |
 |  230 |      8868    0.4 |     11222    0.4  29.7 |     1905    0.4 |
 |  231 |      9715    0.4 |     12242    0.4  30.8 |     1920    0.4 |
 |  232 |     10502    0.4 |     13311    0.4  34.3 |     1763    0.4 |
 |  233 |      9221    0.4 |     11912    0.4  34.0 |     2175    0.5 |
 |  234 |     10230    0.4 |     12934    0.4  33.5 |     1748    0.4 |
 |  235 |      9702    0.4 |     12058    0.4  31.2 |     1400    0.3 |
 |  236 |      9365    0.4 |     12102    0.4  32.0 |     2169    0.5 |
 |  237 |     10342    0.4 |     13124    0.4  34.4 |     1709    0.4 |
 |  238 |      9175    0.4 |     11992    0.4  32.4 |     2376    0.5 |
 |  239 |      9475    0.4 |     12077    0.4  33.2 |     1787    0.4 |
 |  240 |     10737    0.5 |     13344    0.4  33.1 |     1447    0.3 |
 |  241 |     10663    0.4 |     13516    0.5  35.4 |     1630    0.4 |
 |  242 |     10125    0.4 |     12750    0.4  33.8 |     1651    0.4 |
 |  243 |      8115    0.3 |     10609    0.4  29.6 |     2658    0.6 |
 |  244 |      8656    0.4 |     11288    0.4  32.1 |     2533    0.6 |
 |  245 |      9880    0.4 |     12176    0.4  29.8 |     1520    0.3 |
 |  246 |     10237    0.4 |     13009    0.4  33.7 |     1845    0.4 |
 |  247 |     10075    0.4 |     12721    0.4  32.8 |     1786    0.4 |
 |  248 |      9348    0.4 |     11885    0.4  30.7 |     1924    0.4 |
 |  249 |      8652    0.4 |     11229    0.4  31.5 |     2490    0.6 |
 |  250 |      8203    0.3 |     10673    0.4  28.2 |     2770    0.6 |
 |  251 |     10435    0.4 |     13286    0.4  34.6 |     1853    0.4 |
 |  252 |     10608    0.4 |     13289    0.4  33.3 |     1625    0.4 |
 |  253 |      9209    0.4 |     11797    0.4  31.4 |     2070    0.5 |
 |  254 |     10531    0.4 |     13213    0.4  33.5 |     1579    0.4 |
 |  255 |      8766    0.4 |     11764    0.4  35.3 |     2396    0.5 |
 |  256 |     10086    0.4 |     12453    0.4  32.0 |     1223    0.3 |
 +------+------------------+------------------------+-----------------+
 | Min  |      6998    0.3 |      9206    0.3  20.3 |      832    0.2 |
 |(part)|           (   41)|           (   41   115)|          (   93)|
 +------+------------------+------------------------+-----------------+
 | Max  |     10775    0.5 |     13539    0.5  35.8 |     3173    0.7 |
 |(part)|           (  193)|           (  193   198)|          (  147)|
 +------+------------------+------------------------+-----------------+
 | Ave  |      9295    0.4 |     11649    0.4  29.5 |     1734    0.4 |
 +------+------------------+------------------------+-----------------+
 | Sum  |   2379581  100.0 |   2982051  100.0  29.5 |   443895  100.0 |
 +------+------------------+------------------------+-----------------+

 Partitioning information for domain: TubeDom

        +------------------+------------------------+-----------------+
        |     Elements     |        Vertices        |     Faces       |
 +------+------------------+------------------------+-----------------+
 | Part |   Number     %   |   Number     %   %Ovlp |  Number     %   |
 +------+------------------+------------------------+-----------------+
 | Full |     65210        |    111636              |    89240        |
 +------+------------------+------------------------+-----------------+
 |    1 |       360    0.3 |       636    0.2  29.2 |      360    0.2 |
 |    2 |      1307    1.0 |      2759    1.0  83.4 |     1423    0.9 |
 |    3 |      1042    0.8 |      2214    0.8  78.9 |     1112    0.7 |
 |    4 |       965    0.7 |      2051    0.7  78.2 |     1042    0.6 |
 |    5 |       370    0.3 |       663    0.2  31.7 |      370    0.2 |
 |    6 |       337    0.3 |       635    0.2  29.3 |      381    0.2 |
 |    7 |       330    0.2 |       624    0.2  28.8 |      378    0.2 |
 |    8 |       372    0.3 |       660    0.2  30.0 |      372    0.2 |
 |    9 |       711    0.5 |      1485    0.5  69.9 |      766    0.5 |
 |   10 |       634    0.5 |      1374    0.5  67.3 |      732    0.4 |
 |   11 |       885    0.7 |      1803    0.6  73.9 |      918    0.6 |
 |   12 |       402    0.3 |       785    0.3  43.7 |      426    0.3 |
 |   13 |       382    0.3 |       681    0.2  31.0 |      381    0.2 |
 |   14 |       374    0.3 |       660    0.2  29.1 |      374    0.2 |
 |   15 |       352    0.3 |       666    0.2  33.3 |      384    0.2 |
 |   16 |       338    0.3 |       636    0.2  30.0 |      378    0.2 |
 |   17 |       358    0.3 |       633    0.2  29.4 |      358    0.2 |
 |   18 |       999    0.8 |      2064    0.7  77.3 |     1042    0.6 |
 |   19 |       336    0.3 |       639    0.2  30.0 |      384    0.2 |
 |   20 |       342    0.3 |       636    0.2  29.2 |      378    0.2 |
 |   21 |      1376    1.0 |      2876    1.0  83.6 |     1452    0.9 |
 |   22 |       893    0.7 |      1916    0.7  76.8 |     1008    0.6 |
 |   23 |       364    0.3 |       648    0.2  30.6 |      364    0.2 |
 |   24 |       324    0.2 |       576    0.2  22.4 |      356    0.2 |
 |   25 |      1492    1.1 |      3058    1.1  84.7 |     1492    0.9 |
 |   26 |       704    0.5 |      1475    0.5  68.1 |      764    0.5 |
 |   27 |      1052    0.8 |      2243    0.8  80.1 |     1144    0.7 |
 |   28 |      1269    1.0 |      2658    1.0  83.3 |     1317    0.8 |
 |   29 |       382    0.3 |       681    0.2  30.8 |      382    0.2 |
 |   30 |       348    0.3 |       646    0.2  31.7 |      372    0.2 |
 |   31 |       354    0.3 |       675    0.2  31.6 |      400    0.2 |
 |   32 |       360    0.3 |       642    0.2  30.8 |      360    0.2 |
 |   33 |       336    0.3 |       636    0.2  30.2 |      380    0.2 |
 |   34 |       360    0.3 |       669    0.2  29.6 |      396    0.2 |
 |   35 |       372    0.3 |       654    0.2  28.4 |      372    0.2 |
 |   36 |       370    0.3 |       657    0.2  30.1 |      370    0.2 |
 |   37 |       690    0.5 |      1452    0.5  68.2 |      756    0.5 |
 |   38 |       810    0.6 |      1682    0.6  72.2 |      854    0.5 |
 |   39 |       627    0.5 |      1350    0.5  66.7 |      728    0.4 |
 |   40 |       756    0.6 |      1559    0.6  70.6 |      789    0.5 |
 |   41 |       368    0.3 |       645    0.2  27.9 |      368    0.2 |
 |   42 |       358    0.3 |       636    0.2  30.2 |      358    0.2 |
 |   43 |       330    0.2 |       633    0.2  29.4 |      386    0.2 |
 |   44 |       362    0.3 |       636    0.2  28.3 |      362    0.2 |
 |   45 |       837    0.6 |      1712    0.6  74.1 |      887    0.5 |
 |   46 |       458    0.3 |       877    0.3  46.4 |      465    0.3 |
 |   47 |       802    0.6 |      1686    0.6  72.2 |      915    0.6 |
 |   48 |       442    0.3 |       885    0.3  47.5 |      466    0.3 |
 |   49 |       326    0.2 |       636    0.2  29.2 |      394    0.2 |
 |   50 |       377    0.3 |       671    0.2  30.6 |      377    0.2 |
 |   51 |       368    0.3 |       681    0.2  32.6 |      388    0.2 |
 |   52 |       360    0.3 |       633    0.2  28.4 |      359    0.2 |
 |   53 |       629    0.5 |      1310    0.5  66.1 |      697    0.4 |
 |   54 |       812    0.6 |      1782    0.6  74.1 |      917    0.6 |
 |   55 |       771    0.6 |      1579    0.6  71.7 |      771    0.5 |
 |   56 |       678    0.5 |      1414    0.5  68.6 |      728    0.4 |
 |   57 |       375    0.3 |       659    0.2  28.7 |      373    0.2 |
 |   58 |       378    0.3 |       669    0.2  29.7 |      377    0.2 |
 |   59 |       368    0.3 |       648    0.2  28.7 |      368    0.2 |
 |   60 |       336    0.3 |       633    0.2  29.4 |      380    0.2 |
 |   61 |       710    0.5 |      1529    0.5  69.2 |      814    0.5 |
 |   62 |       354    0.3 |       660    0.2  29.1 |      394    0.2 |
 |   63 |       818    0.6 |      1731    0.6  74.5 |      871    0.5 |
 |   64 |       719    0.5 |      1452    0.5  68.7 |      743    0.5 |
 |   65 |       356    0.3 |       621    0.2  27.1 |      356    0.2 |
 |   66 |       360    0.3 |       639    0.2  30.0 |      360    0.2 |
 |   67 |       350    0.3 |       654    0.2  28.4 |      394    0.2 |
 |   68 |       348    0.3 |       657    0.2  29.2 |      396    0.2 |
 |   69 |      1237    0.9 |      2565    0.9  82.3 |     1269    0.8 |
 |   70 |      1057    0.8 |      2197    0.8  79.4 |     1104    0.7 |
 |   71 |       362    0.3 |       654    0.2  28.0 |      383    0.2 |
 |   72 |      1037    0.8 |      2177    0.8  79.8 |     1102    0.7 |
 |   73 |       388    0.3 |       701    0.3  33.5 |      388    0.2 |
 |   74 |       362    0.3 |       642    0.2  30.7 |      354    0.2 |
 |   75 |       362    0.3 |       639    0.2  29.1 |      362    0.2 |
 |   76 |       326    0.2 |       648    0.2  30.6 |      402    0.2 |
 |   77 |       362    0.3 |       636    0.2  28.5 |      361    0.2 |
 |   78 |      1408    1.1 |      2893    1.0  84.5 |     1464    0.9 |
 |   79 |      1212    0.9 |      2518    0.9  82.5 |     1280    0.8 |
 |   80 |      1244    0.9 |      2613    0.9  82.7 |     1344    0.8 |
 |   81 |       336    0.3 |       633    0.2  29.4 |      380    0.2 |
 |   82 |       356    0.3 |       651    0.2  29.5 |      380    0.2 |
 |   83 |       366    0.3 |       642    0.2  28.0 |      366    0.2 |
 |   84 |       360    0.3 |       639    0.2  30.0 |      360    0.2 |
 |   85 |      1156    0.9 |      2420    0.9  81.7 |     1204    0.7 |
 |   86 |      1225    0.9 |      2599    0.9  82.6 |     1313    0.8 |
 |   87 |      1046    0.8 |      2172    0.8  78.5 |     1082    0.7 |
 |   88 |       992    0.7 |      2068    0.7  78.5 |     1043    0.6 |
 |   89 |       356    0.3 |       630    0.2  29.5 |      356    0.2 |
 |   90 |       370    0.3 |       657    0.2  30.1 |      370    0.2 |
 |   91 |       362    0.3 |       672    0.2  30.4 |      394    0.2 |
 |   92 |       346    0.3 |       657    0.2  31.1 |      390    0.2 |
 |   93 |       994    0.7 |      2016    0.7  77.4 |      994    0.6 |
 |   94 |      1296    1.0 |      2719    1.0  82.7 |     1371    0.8 |
 |   95 |      1269    1.0 |      2591    0.9  82.1 |     1286    0.8 |
 |   96 |       824    0.6 |      1773    0.6  74.1 |      922    0.6 |
 |   97 |       374    0.3 |       660    0.2  29.1 |      374    0.2 |
 |   98 |       342    0.3 |       660    0.2  29.1 |      406    0.2 |
 |   99 |       366    0.3 |       654    0.2  31.2 |      366    0.2 |
 |  100 |       392    0.3 |       717    0.3  35.1 |      392    0.2 |
 |  101 |      1289    1.0 |      2692    1.0  83.5 |     1341    0.8 |
 |  102 |      1171    0.9 |      2484    0.9  81.9 |     1259    0.8 |
 |  103 |      1327    1.0 |      2802    1.0  83.7 |     1401    0.9 |
 |  104 |       525    0.4 |      1034    0.4  57.1 |      525    0.3 |
 |  105 |       370    0.3 |       654    0.2  29.4 |      370    0.2 |
 |  106 |       322    0.2 |       630    0.2  28.6 |      394    0.2 |
 |  107 |       374    0.3 |       663    0.2  29.9 |      374    0.2 |
 |  108 |       360    0.3 |       633    0.2  28.4 |      360    0.2 |
 |  109 |      1309    1.0 |      2676    1.0  82.7 |     1309    0.8 |
 |  110 |      1165    0.9 |      2496    0.9  82.2 |     1264    0.8 |
 |  111 |      1343    1.0 |      2814    1.0  83.4 |     1448    0.9 |
 |  112 |       372    0.3 |       657    0.2  29.2 |      372    0.2 |
 |  113 |       334    0.3 |       621    0.2  28.0 |      374    0.2 |
 |  114 |       348    0.3 |       651    0.2  32.1 |      376    0.2 |
 |  115 |       352    0.3 |       618    0.2  28.2 |      352    0.2 |
 |  116 |       364    0.3 |       663    0.2  30.9 |      379    0.2 |
 |  117 |      1051    0.8 |      2272    0.8  80.5 |     1180    0.7 |
 |  118 |      1171    0.9 |      2397    0.9  81.6 |     1171    0.7 |
 |  119 |      1033    0.8 |      2121    0.8  77.8 |     1097    0.7 |
 |  120 |      1063    0.8 |      2221    0.8  79.9 |     1143    0.7 |
 |  121 |      1357    1.0 |      2771    1.0  83.7 |     1400    0.9 |
 |  122 |       368    0.3 |       684    0.2  34.2 |      384    0.2 |
 |  123 |       968    0.7 |      1959    0.7  76.6 |      968    0.6 |
 |  124 |      1346    1.0 |      2892    1.0  83.8 |     1486    0.9 |
 |  125 |       372    0.3 |       654    0.2  28.4 |      372    0.2 |
 |  126 |       384    0.3 |       693    0.2  32.9 |      384    0.2 |
 |  127 |       366    0.3 |       663    0.2  29.9 |      382    0.2 |
 |  128 |       352    0.3 |       675    0.2  31.1 |      404    0.2 |
 |  129 |       598    0.4 |      1406    0.5  70.4 |      882    0.5 |
 |  130 |       542    0.4 |      1284    0.5  68.7 |      821    0.5 |
 |  131 |       216    0.2 |       504    0.2  17.5 |      460    0.3 |
 |  132 |       639    0.5 |      1470    0.5  71.8 |      934    0.6 |
 |  133 |       216    0.2 |       496    0.2  17.7 |      452    0.3 |
 |  134 |       212    0.2 |       498    0.2  18.5 |      452    0.3 |
 |  135 |       208    0.2 |       482    0.2  16.6 |      442    0.3 |
 |  136 |       211    0.2 |       488    0.2  18.0 |      444    0.3 |
 |  137 |       648    0.5 |      1542    0.6  74.2 |      955    0.6 |
 |  138 |       631    0.5 |      1456    0.5  72.0 |      886    0.5 |
 |  139 |       218    0.2 |       504    0.2  19.0 |      456    0.3 |
 |  140 |       208    0.2 |       488    0.2  18.0 |      444    0.3 |
 |  141 |       217    0.2 |       500    0.2  16.8 |      458    0.3 |
 |  142 |       216    0.2 |       504    0.2  17.5 |      460    0.3 |
 |  143 |       436    0.3 |      1010    0.4  59.4 |      691    0.4 |
 |  144 |       536    0.4 |      1278    0.5  68.1 |      839    0.5 |
 |  145 |       209    0.2 |       488    0.2  18.9 |      442    0.3 |
 |  146 |       207    0.2 |       480    0.2  16.7 |      440    0.3 |
 |  147 |       216    0.2 |       498    0.2  16.1 |      458    0.3 |
 |  148 |       208    0.2 |       482    0.2  17.4 |      440    0.3 |
 |  149 |       634    0.5 |      1522    0.5  73.7 |      937    0.6 |
 |  150 |       583    0.4 |      1338    0.5  70.3 |      824    0.5 |
 |  151 |       388    0.3 |       910    0.3  54.3 |      631    0.4 |
 |  152 |       488    0.4 |      1186    0.4  65.4 |      783    0.5 |
 |  153 |       209    0.2 |       486    0.2  17.3 |      444    0.3 |
 |  154 |       623    0.5 |      1412    0.5  72.1 |      889    0.5 |
 |  155 |       636    0.5 |      1498    0.5  73.6 |      909    0.6 |
 |  156 |       658    0.5 |      1560    0.6  73.2 |      974    0.6 |
 |  157 |       215    0.2 |       496    0.2  16.9 |      454    0.3 |
 |  158 |       208    0.2 |       484    0.2  18.2 |      440    0.3 |
 |  159 |       208    0.2 |       486    0.2  18.1 |      442    0.3 |
 |  160 |       220    0.2 |       508    0.2  18.1 |      462    0.3 |
 |  161 |       340    0.3 |       651    0.2  29.8 |      394    0.2 |
 |  162 |       368    0.3 |       687    0.2  31.4 |      400    0.2 |
 |  163 |       370    0.3 |       663    0.2  31.7 |      370    0.2 |
 |  164 |       368    0.3 |       648    0.2  28.7 |      368    0.2 |
 |  165 |       701    0.5 |      1546    0.6  69.5 |      826    0.5 |
 |  166 |       812    0.6 |      1694    0.6  74.0 |      867    0.5 |
 |  167 |       834    0.6 |      1725    0.6  73.4 |      891    0.5 |
 |  168 |       380    0.3 |       675    0.2  30.2 |      380    0.2 |
 |  169 |       216    0.2 |       508    0.2  18.1 |      462    0.3 |
 |  170 |       209    0.2 |       482    0.2  17.4 |      440    0.3 |
 |  171 |       215    0.2 |       496    0.2  16.1 |      456    0.3 |
 |  172 |       235    0.2 |       571    0.2  31.2 |      461    0.3 |
 |  173 |       804    0.6 |      1722    0.6  74.0 |      889    0.5 |
 |  174 |       372    0.3 |       661    0.2  30.1 |      372    0.2 |
 |  175 |       584    0.4 |      1165    0.4  62.1 |      584    0.4 |
 |  176 |       697    0.5 |      1630    0.6  76.5 |      892    0.5 |
 |  177 |       782    0.6 |      1706    0.6  72.2 |      904    0.5 |
 |  178 |       752    0.6 |      1573    0.6  70.4 |      806    0.5 |
 |  179 |       697    0.5 |      1427    0.5  67.4 |      731    0.4 |
 |  180 |       710    0.5 |      1478    0.5  68.7 |      754    0.5 |
 |  181 |       376    0.3 |       681    0.2  33.5 |      376    0.2 |
 |  182 |       362    0.3 |       642    0.2  29.9 |      362    0.2 |
 |  183 |       372    0.3 |       684    0.2  31.6 |      392    0.2 |
 |  184 |       352    0.3 |       660    0.2  29.1 |      396    0.2 |
 |  185 |       328    0.2 |       627    0.2  27.8 |      388    0.2 |
 |  186 |       362    0.3 |       645    0.2  30.7 |      362    0.2 |
 |  187 |       383    0.3 |       674    0.2  29.8 |      377    0.2 |
 |  188 |       376    0.3 |       672    0.2  31.1 |      375    0.2 |
 |  189 |       891    0.7 |      1872    0.7  75.7 |      956    0.6 |
 |  190 |       499    0.4 |      1017    0.4  56.0 |      523    0.3 |
 |  191 |       344    0.3 |       654    0.2  29.4 |      396    0.2 |
 |  192 |       833    0.6 |      1717    0.6  74.3 |      894    0.5 |
 |  193 |       212    0.2 |       490    0.2  18.0 |      446    0.3 |
 |  194 |       618    0.5 |      1418    0.5  70.5 |      913    0.6 |
 |  195 |       579    0.4 |      1334    0.5  69.4 |      836    0.5 |
 |  196 |       597    0.4 |      1432    0.5  70.9 |      910    0.6 |
 |  197 |       199    0.1 |       462    0.2  10.4 |      437    0.3 |
 |  198 |       215    0.2 |       498    0.2  16.9 |      456    0.3 |
 |  199 |       208    0.2 |       478    0.2  16.7 |      438    0.3 |
 |  200 |       208    0.2 |       484    0.2  18.2 |      440    0.3 |
 |  201 |       490    0.4 |      1194    0.4  66.7 |      782    0.5 |
 |  202 |       584    0.4 |      1346    0.5  70.7 |      819    0.5 |
 |  203 |       503    0.4 |      1154    0.4  65.9 |      731    0.4 |
 |  204 |       605    0.5 |      1446    0.5  72.4 |      902    0.5 |
 |  205 |       208    0.2 |       490    0.2  19.6 |      442    0.3 |
 |  206 |       210    0.2 |       490    0.2  19.8 |      440    0.3 |
 |  207 |       215    0.2 |       500    0.2  16.8 |      458    0.3 |
 |  208 |       210    0.2 |       486    0.2  18.9 |      440    0.3 |
 |  209 |       208    0.2 |       480    0.2  17.5 |      438    0.3 |
 |  210 |       217    0.2 |       504    0.2  18.1 |      456    0.3 |
 |  211 |       206    0.2 |       476    0.2  16.8 |      436    0.3 |
 |  212 |       220    0.2 |       506    0.2  17.2 |      462    0.3 |
 |  213 |       423    0.3 |       986    0.4  60.0 |      652    0.4 |
 |  214 |       528    0.4 |      1286    0.5  69.1 |      828    0.5 |
 |  215 |       584    0.4 |      1372    0.5  71.3 |      860    0.5 |
 |  216 |       524    0.4 |      1214    0.4  65.9 |      776    0.5 |
 |  217 |       217    0.2 |       502    0.2  16.7 |      460    0.3 |
 |  218 |       214    0.2 |       496    0.2  16.9 |      454    0.3 |
 |  219 |       209    0.2 |       488    0.2  18.0 |      444    0.3 |
 |  220 |       216    0.2 |       502    0.2  17.5 |      458    0.3 |
 |  221 |       636    0.5 |      1486    0.5  71.9 |      946    0.6 |
 |  222 |       465    0.3 |      1086    0.4  61.7 |      722    0.4 |
 |  223 |       513    0.4 |      1216    0.4  66.8 |      790    0.5 |
 |  224 |       615    0.5 |      1436    0.5  70.9 |      899    0.5 |
 |  225 |       211    0.2 |       490    0.2  18.8 |      444    0.3 |
 |  226 |       220    0.2 |       516    0.2  20.9 |      462    0.3 |
 |  227 |       206    0.2 |       480    0.2  17.5 |      438    0.3 |
 |  228 |       210    0.2 |       488    0.2  18.9 |      442    0.3 |
 |  229 |       240    0.2 |       598    0.2  32.4 |      496    0.3 |
 |  230 |       670    0.5 |      1510    0.5  73.8 |      948    0.6 |
 |  231 |       579    0.4 |      1324    0.5  68.9 |      864    0.5 |
 |  232 |       217    0.2 |       502    0.2  16.7 |      460    0.3 |
 |  233 |       218    0.2 |       504    0.2  17.5 |      460    0.3 |
 |  234 |       216    0.2 |       504    0.2  17.5 |      460    0.3 |
 |  235 |       572    0.4 |      1316    0.5  70.1 |      803    0.5 |
 |  236 |       582    0.4 |      1382    0.5  71.5 |      870    0.5 |
 |  237 |       439    0.3 |      1058    0.4  60.7 |      715    0.4 |
 |  238 |       711    0.5 |      1700    0.6  75.5 |     1044    0.6 |
 |  239 |       570    0.4 |      1314    0.5  68.3 |      850    0.5 |
 |  240 |       208    0.2 |       482    0.2  18.3 |      438    0.3 |
 |  241 |       209    0.2 |       488    0.2  18.2 |      444    0.3 |
 |  242 |       216    0.2 |       498    0.2  16.9 |      456    0.3 |
 |  243 |       209    0.2 |       486    0.2  19.1 |      438    0.3 |
 |  244 |       216    0.2 |       502    0.2  17.5 |      458    0.3 |
 |  245 |       377    0.3 |       876    0.3  54.6 |      638    0.4 |
 |  246 |       209    0.2 |       484    0.2  18.2 |      440    0.3 |
 |  247 |       488    0.4 |      1154    0.4  65.7 |      756    0.5 |
 |  248 |       688    0.5 |      1580    0.6  74.2 |      962    0.6 |
 |  249 |       217    0.2 |       502    0.2  16.7 |      460    0.3 |
 |  250 |       207    0.2 |       478    0.2  16.7 |      438    0.3 |
 |  251 |       210    0.2 |       488    0.2  19.3 |      441    0.3 |
 |  252 |       210    0.2 |       512    0.2  23.0 |      453    0.3 |
 |  253 |       675    0.5 |      1566    0.6  73.9 |      976    0.6 |
 |  254 |       403    0.3 |       946    0.3  58.1 |      638    0.4 |
 |  255 |       564    0.4 |      1376    0.5  71.1 |      869    0.5 |
 |  256 |       526    0.4 |      1210    0.4  65.5 |      768    0.5 |
 +------+------------------+------------------------+-----------------+
 | Min  |       199    0.1 |       462    0.2  10.4 |      352    0.2 |
 |(part)|           (  197)|           (  197   197)|          (  115)|
 +------+------------------+------------------------+-----------------+
 | Max  |      1492    1.1 |      3058    1.1  84.7 |     1492    0.9 |
 |(part)|           (   25)|           (   25    25)|          (   25)|
 +------+------------------+------------------------+-----------------+
 | Ave  |       520    0.4 |      1090    0.4  60.0 |      642    0.4 |
 +------+------------------+------------------------+-----------------+
 | Sum  |    133161  100.0 |    278977  100.0  60.0 |   164399  100.0 |
 +------+------------------+------------------------+-----------------+

 +--------------------------------------------------------------------+
 |                 Partitioning CPU-Time Requirements                 |
 +--------------------------------------------------------------------+
  
 - Preparations                                       1.766E+00 seconds
 - Low-level mesh partitioning                        2.532E+00 seconds
 - Gather zone interface information                  1.339E+01 seconds
 - Global partitioning information                    2.040E-01 seconds
 - Element and face partitioning information          2.500E-01 seconds
 - Vertex partitioning information                    9.840E-01 seconds
 - Partitioning information compression               3.200E-02 seconds
 - Summed CPU-time for mesh partitioning              2.019E+01 seconds

 +--------------------------------------------------------------------+
 |                   Job Information at End of Run                    |
 +--------------------------------------------------------------------+

 +---------------------------+------+----------+----------+-----------+
 | Host                      | Mesh |     Job Finished    |    CPU    |
 |                           | Part | DD/MM/YY | hh:mm:ss |  seconds  |
 +---------------------------+------+----------+----------+-----------+
 | RD000D3A21FAED            |    1 | 29/05/15 | 07:04:24 | 3.581E+01 |
 +---------------------------+------+----------+----------+-----------+

 Total wall clock time: 3.402E+01 seconds
             or: (          0:         0:         0:    34.023 )
                 (       Days:     Hours:   Minutes:   Seconds )


 +--------------------------------------------------------------------+
 |                                                                    |
 |                               Solver                               |
 |                                                                    |
 +--------------------------------------------------------------------+




 +--------------------------------------------------------------------+
 |                                                                    |
 |                    ANSYS(R) CFX(R) Solver 15.0.7                   |
 |                                                                    |
 | Version 2014.04.10-23.00-131675     Thu Apr 10 23:23:23 GMTDT 2014 |
 |                                                                    |
 |                        Executable Attributes                       |
 |                                                                    |
 |          single-64bit-int32-supfort-optimised-noprof-lcomp         |
 |                                                                    |
 | (C) 2014 ANSYS, Inc.                                               |
 |                                                                    |
 | All rights reserved. Unauthorized use, distribution or duplication |
 | is prohibited. This product is subject to U.S. laws governing      |
 | export and re-export. For full Legal Notice, see documentation.    |
 +--------------------------------------------------------------------+




 +--------------------------------------------------------------------+
 |                  Job Information at Start of Run                   |
 +--------------------------------------------------------------------+

 Run mode:       parallel run (MS MPI)

 +------------------------------+------+--------+----------+----------+
 | Host                         | Mesh |  PID   |     Job Started     |
 |                              | Part |        | DD/MM/YY | hh:mm:ss |
 +------------------------------+------+--------+----------+----------+
 | RD000D3A21FAED               |    1 |   2876 | 29/05/15 | 07:06:18 |
 |                              |    2 |   1208 | 29/05/15 | 07:06:18 |
 |                              |    3 |   2172 | 29/05/15 | 07:06:18 |
 |                              |    4 |   3212 | 29/05/15 | 07:06:18 |
 |                              |    5 |   2016 | 29/05/15 | 07:06:18 |
 |                              |    6 |   3760 | 29/05/15 | 07:06:18 |
 |                              |    7 |   3300 | 29/05/15 | 07:06:18 |
 |                              |    8 |   3548 | 29/05/15 | 07:06:18 |
 +------------------------------+------+--------+----------+----------+
 | RD000D3A21FC45               |    9 |   2772 | 29/05/15 | 07:06:18 |
 |                              |   10 |   1328 | 29/05/15 | 07:06:18 |
 |                              |   11 |   2416 | 29/05/15 | 07:06:18 |
 |                              |   12 |   1304 | 29/05/15 | 07:06:18 |
 |                              |   13 |   3120 | 29/05/15 | 07:06:18 |
 |                              |   14 |   2012 | 29/05/15 | 07:06:18 |
 |                              |   15 |    956 | 29/05/15 | 07:06:18 |
 |                              |   16 |   2528 | 29/05/15 | 07:06:18 |
 +------------------------------+------+--------+----------+----------+
 | RD000D3A21F47E               |   17 |   3252 | 29/05/15 | 07:06:18 |
 |                              |   18 |   2284 | 29/05/15 | 07:06:18 |
 |                              |   19 |   2256 | 29/05/15 | 07:06:18 |
 |                              |   20 |   1196 | 29/05/15 | 07:06:18 |
 |                              |   21 |   1972 | 29/05/15 | 07:06:18 |
 |                              |   22 |   3260 | 29/05/15 | 07:06:18 |
 |                              |   23 |   3268 | 29/05/15 | 07:06:18 |
 |                              |   24 |   2052 | 29/05/15 | 07:06:18 |
 +------------------------------+------+--------+----------+----------+
 | RD000D3A21FFAC               |   25 |    500 | 29/05/15 | 07:06:18 |
 |                              |   26 |   3696 | 29/05/15 | 07:06:18 |
 |                              |   27 |   3200 | 29/05/15 | 07:06:18 |
 |                              |   28 |   2380 | 29/05/15 | 07:06:18 |
 |                              |   29 |   1972 | 29/05/15 | 07:06:18 |
 |                              |   30 |   1352 | 29/05/15 | 07:06:18 |
 |                              |   31 |   1204 | 29/05/15 | 07:06:18 |
 |                              |   32 |   2008 | 29/05/15 | 07:06:18 |
 +------------------------------+------+--------+----------+----------+
 | RD000D3A21F59B               |   33 |   3432 | 29/05/15 | 07:06:18 |
 |                              |   34 |   3264 | 29/05/15 | 07:06:18 |
 |                              |   35 |   3552 | 29/05/15 | 07:06:18 |
 |                              |   36 |     96 | 29/05/15 | 07:06:18 |
 |                              |   37 |   3808 | 29/05/15 | 07:06:18 |
 |                              |   38 |   1884 | 29/05/15 | 07:06:18 |
 |                              |   39 |   2132 | 29/05/15 | 07:06:18 |
 |                              |   40 |   3424 | 29/05/15 | 07:06:18 |
 +------------------------------+------+--------+----------+----------+
 | RD000D3A21FC8B               |   41 |   3340 | 29/05/15 | 07:06:18 |
 |                              |   42 |   2892 | 29/05/15 | 07:06:18 |
 |                              |   43 |   1236 | 29/05/15 | 07:06:18 |
 |                              |   44 |   3840 | 29/05/15 | 07:06:18 |
 |                              |   45 |   3768 | 29/05/15 | 07:06:18 |
 |                              |   46 |    152 | 29/05/15 | 07:06:18 |
 |                              |   47 |   3044 | 29/05/15 | 07:06:18 |
 |                              |   48 |   3836 | 29/05/15 | 07:06:18 |
 +------------------------------+------+--------+----------+----------+
 | RD000D3A21F495               |   49 |   3596 | 29/05/15 | 07:06:18 |
 |                              |   50 |   1916 | 29/05/15 | 07:06:18 |
 |                              |   51 |   3640 | 29/05/15 | 07:06:18 |
 |                              |   52 |   1860 | 29/05/15 | 07:06:18 |
 |                              |   53 |   2948 | 29/05/15 | 07:06:18 |
 |                              |   54 |   2216 | 29/05/15 | 07:06:18 |
 |                              |   55 |   2192 | 29/05/15 | 07:06:18 |
 |                              |   56 |   1476 | 29/05/15 | 07:06:18 |
 +------------------------------+------+--------+----------+----------+
 | RD000D3A21FCA8               |   57 |   2192 | 29/05/15 | 07:06:18 |
 |                              |   58 |   2288 | 29/05/15 | 07:06:18 |
 |                              |   59 |   3680 | 29/05/15 | 07:06:18 |
 |                              |   60 |   3400 | 29/05/15 | 07:06:18 |
 |                              |   61 |   2592 | 29/05/15 | 07:06:18 |
 |                              |   62 |   2752 | 29/05/15 | 07:06:18 |
 |                              |   63 |   2000 | 29/05/15 | 07:06:18 |
 |                              |   64 |   1432 | 29/05/15 | 07:06:18 |
 +------------------------------+------+--------+----------+----------+
 | RD000D3A21F61B               |   65 |   2084 | 29/05/15 | 07:06:18 |
 |                              |   66 |   3660 | 29/05/15 | 07:06:18 |
 |                              |   67 |   3596 | 29/05/15 | 07:06:18 |
 |                              |   68 |    964 | 29/05/15 | 07:06:18 |
 |                              |   69 |   1072 | 29/05/15 | 07:06:18 |
 |                              |   70 |   3568 | 29/05/15 | 07:06:18 |
 |                              |   71 |   3272 | 29/05/15 | 07:06:18 |
 |                              |   72 |   2060 | 29/05/15 | 07:06:18 |
 +------------------------------+------+--------+----------+----------+
 | RD000D3A21FEED               |   73 |   2452 | 29/05/15 | 07:06:17 |
 |                              |   74 |   1872 | 29/05/15 | 07:06:17 |
 |                              |   75 |   2572 | 29/05/15 | 07:06:17 |
 |                              |   76 |   3168 | 29/05/15 | 07:06:17 |
 |                              |   77 |   2864 | 29/05/15 | 07:06:17 |
 |                              |   78 |   1984 | 29/05/15 | 07:06:17 |
 |                              |   79 |   3536 | 29/05/15 | 07:06:17 |
 |                              |   80 |   2096 | 29/05/15 | 07:06:17 |
 +------------------------------+------+--------+----------+----------+
 | RD000D3A21FFEC               |   81 |   1184 | 29/05/15 | 07:06:17 |
 |                              |   82 |   3028 | 29/05/15 | 07:06:17 |
 |                              |   83 |    100 | 29/05/15 | 07:06:17 |
 |                              |   84 |   1092 | 29/05/15 | 07:06:17 |
 |                              |   85 |   4048 | 29/05/15 | 07:06:17 |
 |                              |   86 |   1940 | 29/05/15 | 07:06:17 |
 |                              |   87 |   3536 | 29/05/15 | 07:06:17 |
 |                              |   88 |   1988 | 29/05/15 | 07:06:17 |
 +------------------------------+------+--------+----------+----------+
 | RD000D3A21FC0F               |   89 |   2440 | 29/05/15 | 07:06:18 |
 |                              |   90 |   3188 | 29/05/15 | 07:06:18 |
 |                              |   91 |   2020 | 29/05/15 | 07:06:18 |
 |                              |   92 |   4088 | 29/05/15 | 07:06:18 |
 |                              |   93 |   1932 | 29/05/15 | 07:06:18 |
 |                              |   94 |    916 | 29/05/15 | 07:06:18 |
 |                              |   95 |    500 | 29/05/15 | 07:06:18 |
 |                              |   96 |   3552 | 29/05/15 | 07:06:18 |
 +------------------------------+------+--------+----------+----------+
 | RD000D3A21FD23               |   97 |   1148 | 29/05/15 | 07:06:18 |
 |                              |   98 |   3004 | 29/05/15 | 07:06:18 |
 |                              |   99 |   2596 | 29/05/15 | 07:06:18 |
 |                              |  100 |   3256 | 29/05/15 | 07:06:18 |
 |                              |  101 |   3260 | 29/05/15 | 07:06:18 |
 |                              |  102 |   1184 | 29/05/15 | 07:06:18 |
 |                              |  103 |   1940 | 29/05/15 | 07:06:18 |
 |                              |  104 |   3548 | 29/05/15 | 07:06:18 |
 +------------------------------+------+--------+----------+----------+
 | RD000D3A21FC1E               |  105 |   3160 | 29/05/15 | 07:06:18 |
 |                              |  106 |   1448 | 29/05/15 | 07:06:18 |
 |                              |  107 |   2000 | 29/05/15 | 07:06:18 |
 |                              |  108 |   2992 | 29/05/15 | 07:06:18 |
 |                              |  109 |   3824 | 29/05/15 | 07:06:18 |
 |                              |  110 |   3108 | 29/05/15 | 07:06:18 |
 |                              |  111 |   3444 | 29/05/15 | 07:06:18 |
 |                              |  112 |   2264 | 29/05/15 | 07:06:18 |
 +------------------------------+------+--------+----------+----------+
 | RD000D3A21F2FE               |  113 |   3368 | 29/05/15 | 07:06:17 |
 |                              |  114 |   3912 | 29/05/15 | 07:06:17 |
 |                              |  115 |   3116 | 29/05/15 | 07:06:17 |
 |                              |  116 |   3124 | 29/05/15 | 07:06:17 |
 |                              |  117 |   3544 | 29/05/15 | 07:06:17 |
 |                              |  118 |   4060 | 29/05/15 | 07:06:17 |
 |                              |  119 |   1576 | 29/05/15 | 07:06:17 |
 |                              |  120 |   3468 | 29/05/15 | 07:06:17 |
 +------------------------------+------+--------+----------+----------+
 | RD000D3A21FA6D               |  121 |   2580 | 29/05/15 | 07:06:17 |
 |                              |  122 |   2896 | 29/05/15 | 07:06:17 |
 |                              |  123 |   2572 | 29/05/15 | 07:06:17 |
 |                              |  124 |   3764 | 29/05/15 | 07:06:17 |
 |                              |  125 |   2680 | 29/05/15 | 07:06:17 |
 |                              |  126 |    420 | 29/05/15 | 07:06:17 |
 |                              |  127 |   3632 | 29/05/15 | 07:06:17 |
 |                              |  128 |   3936 | 29/05/15 | 07:06:17 |
 +------------------------------+------+--------+----------+----------+
 | RD000D3A21FA6F               |  129 |   3024 | 29/05/15 | 07:06:17 |
 |                              |  130 |   1728 | 29/05/15 | 07:06:17 |
 |                              |  131 |   3240 | 29/05/15 | 07:06:17 |
 |                              |  132 |   2232 | 29/05/15 | 07:06:17 |
 |                              |  133 |   2716 | 29/05/15 | 07:06:17 |
 |                              |  134 |   3204 | 29/05/15 | 07:06:17 |
 |                              |  135 |   2112 | 29/05/15 | 07:06:17 |
 |                              |  136 |   1936 | 29/05/15 | 07:06:17 |
 +------------------------------+------+--------+----------+----------+
 | RD000D3A21FDA9               |  137 |   2084 | 29/05/15 | 07:06:18 |
 |                              |  138 |    880 | 29/05/15 | 07:06:18 |
 |                              |  139 |   1840 | 29/05/15 | 07:06:18 |
 |                              |  140 |   4080 | 29/05/15 | 07:06:18 |
 |                              |  141 |   3632 | 29/05/15 | 07:06:18 |
[...]
 |                           |   20 | 29/05/15 | 07:14:52 | 5.345E+02 |
 |                           |   21 | 29/05/15 | 07:14:52 | 5.345E+02 |
 |                           |   22 | 29/05/15 | 07:14:52 | 5.345E+02 |
 |                           |   23 | 29/05/15 | 07:14:52 | 5.345E+02 |
 |                           |   24 | 29/05/15 | 07:14:52 | 5.345E+02 |
 +---------------------------+------+----------+----------+-----------+
 | RD000D3A21FFAC            |   25 | 29/05/15 | 07:14:52 | 5.269E+02 |
 |                           |   26 | 29/05/15 | 07:14:52 | 5.269E+02 |
 |                           |   27 | 29/05/15 | 07:14:52 | 5.269E+02 |
 |                           |   28 | 29/05/15 | 07:14:52 | 5.269E+02 |
 |                           |   29 | 29/05/15 | 07:14:52 | 5.269E+02 |
 |                           |   30 | 29/05/15 | 07:14:52 | 5.269E+02 |
 |                           |   31 | 29/05/15 | 07:14:52 | 5.269E+02 |
 |                           |   32 | 29/05/15 | 07:14:52 | 5.269E+02 |
 +---------------------------+------+----------+----------+-----------+
 | RD000D3A21F59B            |   33 | 29/05/15 | 07:14:52 | 5.209E+02 |
 |                           |   34 | 29/05/15 | 07:14:52 | 5.209E+02 |
 |                           |   35 | 29/05/15 | 07:14:52 | 5.209E+02 |
 |                           |   36 | 29/05/15 | 07:14:52 | 5.209E+02 |
 |                           |   37 | 29/05/15 | 07:14:52 | 5.209E+02 |
 |                           |   38 | 29/05/15 | 07:14:52 | 5.209E+02 |
 |                           |   39 | 29/05/15 | 07:14:52 | 5.209E+02 |
 |                           |   40 | 29/05/15 | 07:14:52 | 5.209E+02 |
 +---------------------------+------+----------+----------+-----------+
 | RD000D3A21FC8B            |   41 | 29/05/15 | 07:14:52 | 5.194E+02 |
 |                           |   42 | 29/05/15 | 07:14:52 | 5.194E+02 |
 |                           |   43 | 29/05/15 | 07:14:52 | 5.194E+02 |
 |                           |   44 | 29/05/15 | 07:14:52 | 5.194E+02 |
 |                           |   45 | 29/05/15 | 07:14:52 | 5.194E+02 |
 |                           |   46 | 29/05/15 | 07:14:52 | 5.194E+02 |
 |                           |   47 | 29/05/15 | 07:14:52 | 5.194E+02 |
 |                           |   48 | 29/05/15 | 07:14:52 | 5.194E+02 |
 +---------------------------+------+----------+----------+-----------+
 | RD000D3A21F495            |   49 | 29/05/15 | 07:14:52 | 5.344E+02 |
 |                           |   50 | 29/05/15 | 07:14:52 | 5.344E+02 |
 |                           |   51 | 29/05/15 | 07:14:52 | 5.344E+02 |
 |                           |   52 | 29/05/15 | 07:14:52 | 5.344E+02 |
 |                           |   53 | 29/05/15 | 07:14:52 | 5.344E+02 |
 |                           |   54 | 29/05/15 | 07:14:52 | 5.344E+02 |
 |                           |   55 | 29/05/15 | 07:14:52 | 5.344E+02 |
 |                           |   56 | 29/05/15 | 07:14:52 | 5.344E+02 |
 +---------------------------+------+----------+----------+-----------+
 | RD000D3A21FCA8            |   57 | 29/05/15 | 07:14:53 | 5.329E+02 |
 |                           |   58 | 29/05/15 | 07:14:53 | 5.329E+02 |
 |                           |   59 | 29/05/15 | 07:14:53 | 5.329E+02 |
 |                           |   60 | 29/05/15 | 07:14:53 | 5.329E+02 |
 |                           |   61 | 29/05/15 | 07:14:53 | 5.329E+02 |
 |                           |   62 | 29/05/15 | 07:14:53 | 5.329E+02 |
 |                           |   63 | 29/05/15 | 07:14:53 | 5.329E+02 |
 |                           |   64 | 29/05/15 | 07:14:53 | 5.329E+02 |
 +---------------------------+------+----------+----------+-----------+
 | RD000D3A21F61B            |   65 | 29/05/15 | 07:14:52 | 5.185E+02 |
 |                           |   66 | 29/05/15 | 07:14:52 | 5.185E+02 |
 |                           |   67 | 29/05/15 | 07:14:52 | 5.185E+02 |
 |                           |   68 | 29/05/15 | 07:14:52 | 5.185E+02 |
 |                           |   69 | 29/05/15 | 07:14:52 | 5.185E+02 |
 |                           |   70 | 29/05/15 | 07:14:52 | 5.185E+02 |
 |                           |   71 | 29/05/15 | 07:14:52 | 5.185E+02 |
 |                           |   72 | 29/05/15 | 07:14:52 | 5.185E+02 |
 +---------------------------+------+----------+----------+-----------+
 | RD000D3A21FEED            |   73 | 29/05/15 | 07:14:51 | 5.193E+02 |
 |                           |   74 | 29/05/15 | 07:14:51 | 5.193E+02 |
 |                           |   75 | 29/05/15 | 07:14:51 | 5.193E+02 |
 |                           |   76 | 29/05/15 | 07:14:51 | 5.193E+02 |
 |                           |   77 | 29/05/15 | 07:14:51 | 5.193E+02 |
 |                           |   78 | 29/05/15 | 07:14:51 | 5.193E+02 |
 |                           |   79 | 29/05/15 | 07:14:51 | 5.193E+02 |
 |                           |   80 | 29/05/15 | 07:14:51 | 5.193E+02 |
 +---------------------------+------+----------+----------+-----------+
 | RD000D3A21FFEC            |   81 | 29/05/15 | 07:14:51 | 5.311E+02 |
 |                           |   82 | 29/05/15 | 07:14:51 | 5.311E+02 |
 |                           |   83 | 29/05/15 | 07:14:51 | 5.311E+02 |
 |                           |   84 | 29/05/15 | 07:14:51 | 5.311E+02 |
 |                           |   85 | 29/05/15 | 07:14:51 | 5.311E+02 |
 |                           |   86 | 29/05/15 | 07:14:51 | 5.311E+02 |
 |                           |   87 | 29/05/15 | 07:14:51 | 5.311E+02 |
 |                           |   88 | 29/05/15 | 07:14:51 | 5.311E+02 |
 +---------------------------+------+----------+----------+-----------+
 | RD000D3A21FC0F            |   89 | 29/05/15 | 07:14:52 | 5.328E+02 |
 |                           |   90 | 29/05/15 | 07:14:52 | 5.328E+02 |
 |                           |   91 | 29/05/15 | 07:14:52 | 5.328E+02 |
 |                           |   92 | 29/05/15 | 07:14:52 | 5.328E+02 |
 |                           |   93 | 29/05/15 | 07:14:52 | 5.328E+02 |
 |                           |   94 | 29/05/15 | 07:14:52 | 5.328E+02 |
 |                           |   95 | 29/05/15 | 07:14:52 | 5.328E+02 |
 |                           |   96 | 29/05/15 | 07:14:52 | 5.328E+02 |
 +---------------------------+------+----------+----------+-----------+
 | RD000D3A21FD23            |   97 | 29/05/15 | 07:14:52 | 5.193E+02 |
 |                           |   98 | 29/05/15 | 07:14:52 | 5.193E+02 |
 |                           |   99 | 29/05/15 | 07:14:52 | 5.193E+02 |
 |                           |  100 | 29/05/15 | 07:14:52 | 5.193E+02 |
 |                           |  101 | 29/05/15 | 07:14:52 | 5.193E+02 |
 |                           |  102 | 29/05/15 | 07:14:52 | 5.193E+02 |
 |                           |  103 | 29/05/15 | 07:14:52 | 5.193E+02 |
 |                           |  104 | 29/05/15 | 07:14:52 | 5.193E+02 |
 +---------------------------+------+----------+----------+-----------+
 | RD000D3A21FC1E            |  105 | 29/05/15 | 07:14:52 | 5.346E+02 |
 |                           |  106 | 29/05/15 | 07:14:52 | 5.346E+02 |
 |                           |  107 | 29/05/15 | 07:14:52 | 5.346E+02 |
 |                           |  108 | 29/05/15 | 07:14:52 | 5.346E+02 |
 |                           |  109 | 29/05/15 | 07:14:52 | 5.346E+02 |
 |                           |  110 | 29/05/15 | 07:14:52 | 5.346E+02 |
 |                           |  111 | 29/05/15 | 07:14:52 | 5.346E+02 |
 |                           |  112 | 29/05/15 | 07:14:52 | 5.346E+02 |
 +---------------------------+------+----------+----------+-----------+
 | RD000D3A21F2FE            |  113 | 29/05/15 | 07:14:52 | 5.205E+02 |
 |                           |  114 | 29/05/15 | 07:14:52 | 5.205E+02 |
 |                           |  115 | 29/05/15 | 07:14:52 | 5.205E+02 |
 |                           |  116 | 29/05/15 | 07:14:52 | 5.205E+02 |
 |                           |  117 | 29/05/15 | 07:14:52 | 5.205E+02 |
 |                           |  118 | 29/05/15 | 07:14:52 | 5.205E+02 |
 |                           |  119 | 29/05/15 | 07:14:52 | 5.205E+02 |
 |                           |  120 | 29/05/15 | 07:14:52 | 5.205E+02 |
 +---------------------------+------+----------+----------+-----------+
 | RD000D3A21FA6D            |  121 | 29/05/15 | 07:14:52 | 5.267E+02 |
 |                           |  122 | 29/05/15 | 07:14:52 | 5.267E+02 |
 |                           |  123 | 29/05/15 | 07:14:52 | 5.267E+02 |
 |                           |  124 | 29/05/15 | 07:14:52 | 5.267E+02 |
 |                           |  125 | 29/05/15 | 07:14:52 | 5.267E+02 |
 |                           |  126 | 29/05/15 | 07:14:52 | 5.267E+02 |
 |                           |  127 | 29/05/15 | 07:14:52 | 5.267E+02 |
 |                           |  128 | 29/05/15 | 07:14:52 | 5.267E+02 |
 +---------------------------+------+----------+----------+-----------+
 | RD000D3A21FA6F            |  129 | 29/05/15 | 07:14:52 | 5.663E+02 |
 |                           |  130 | 29/05/15 | 07:14:52 | 5.663E+02 |
 |                           |  131 | 29/05/15 | 07:14:52 | 5.663E+02 |
 |                           |  132 | 29/05/15 | 07:14:52 | 5.663E+02 |
 |                           |  133 | 29/05/15 | 07:14:52 | 5.663E+02 |
 |                           |  134 | 29/05/15 | 07:14:52 | 5.663E+02 |
 |                           |  135 | 29/05/15 | 07:14:52 | 5.663E+02 |
 |                           |  136 | 29/05/15 | 07:14:52 | 5.663E+02 |
 +---------------------------+------+----------+----------+-----------+
 | RD000D3A21FDA9            |  137 | 29/05/15 | 07:14:52 | 5.194E+02 |
 |                           |  138 | 29/05/15 | 07:14:52 | 5.194E+02 |
 |                           |  139 | 29/05/15 | 07:14:52 | 5.194E+02 |
 |                           |  140 | 29/05/15 | 07:14:52 | 5.194E+02 |
 |                           |  141 | 29/05/15 | 07:14:52 | 5.194E+02 |
 |                           |  142 | 29/05/15 | 07:14:52 | 5.194E+02 |
 |                           |  143 | 29/05/15 | 07:14:52 | 5.194E+02 |
 |                           |  144 | 29/05/15 | 07:14:52 | 5.194E+02 |
 +---------------------------+------+----------+----------+-----------+
 | RD000D3A21F990            |  145 | 29/05/15 | 07:14:51 | 5.290E+02 |
 |                           |  146 | 29/05/15 | 07:14:51 | 5.290E+02 |
 |                           |  147 | 29/05/15 | 07:14:51 | 5.290E+02 |
 |                           |  148 | 29/05/15 | 07:14:51 | 5.290E+02 |
 |                           |  149 | 29/05/15 | 07:14:51 | 5.290E+02 |
 |                           |  150 | 29/05/15 | 07:14:51 | 5.290E+02 |
 |                           |  151 | 29/05/15 | 07:14:51 | 5.290E+02 |
 |                           |  152 | 29/05/15 | 07:14:51 | 5.290E+02 |
 +---------------------------+------+----------+----------+-----------+
 | RD000D3A21FFEA            |  153 | 29/05/15 | 07:14:52 | 5.204E+02 |
 |                           |  154 | 29/05/15 | 07:14:52 | 5.204E+02 |
 |                           |  155 | 29/05/15 | 07:14:52 | 5.204E+02 |
 |                           |  156 | 29/05/15 | 07:14:52 | 5.204E+02 |
 |                           |  157 | 29/05/15 | 07:14:52 | 5.204E+02 |
 |                           |  158 | 29/05/15 | 07:14:52 | 5.204E+02 |
 |                           |  159 | 29/05/15 | 07:14:52 | 5.204E+02 |
 |                           |  160 | 29/05/15 | 07:14:52 | 5.204E+02 |
 +---------------------------+------+----------+----------+-----------+
 | RD000D3A21F436            |  161 | 29/05/15 | 07:14:52 | 5.233E+02 |
 |                           |  162 | 29/05/15 | 07:14:52 | 5.233E+02 |
 |                           |  163 | 29/05/15 | 07:14:52 | 5.233E+02 |
 |                           |  164 | 29/05/15 | 07:14:52 | 5.233E+02 |
 |                           |  165 | 29/05/15 | 07:14:52 | 5.233E+02 |
 |                           |  166 | 29/05/15 | 07:14:52 | 5.233E+02 |
 |                           |  167 | 29/05/15 | 07:14:52 | 5.233E+02 |
 |                           |  168 | 29/05/15 | 07:14:52 | 5.233E+02 |
 +---------------------------+------+----------+----------+-----------+
 | RD000D3A21FC15            |  169 | 29/05/15 | 07:14:52 | 5.262E+02 |
 |                           |  170 | 29/05/15 | 07:14:52 | 5.262E+02 |
 |                           |  171 | 29/05/15 | 07:14:52 | 5.262E+02 |
 |                           |  172 | 29/05/15 | 07:14:52 | 5.262E+02 |
 |                           |  173 | 29/05/15 | 07:14:52 | 5.262E+02 |
 |                           |  174 | 29/05/15 | 07:14:52 | 5.262E+02 |
 |                           |  175 | 29/05/15 | 07:14:52 | 5.262E+02 |
 |                           |  176 | 29/05/15 | 07:14:52 | 5.262E+02 |
 +---------------------------+------+----------+----------+-----------+
 | RD000D3A21FB9A            |  177 | 29/05/15 | 07:14:52 | 5.194E+02 |
 |                           |  178 | 29/05/15 | 07:14:52 | 5.194E+02 |
 |                           |  179 | 29/05/15 | 07:14:52 | 5.194E+02 |
 |                           |  180 | 29/05/15 | 07:14:52 | 5.194E+02 |
 |                           |  181 | 29/05/15 | 07:14:52 | 5.194E+02 |
 |                           |  182 | 29/05/15 | 07:14:52 | 5.194E+02 |
 |                           |  183 | 29/05/15 | 07:14:52 | 5.194E+02 |
 |                           |  184 | 29/05/15 | 07:14:52 | 5.194E+02 |
 +---------------------------+------+----------+----------+-----------+
 | RD000D3A21F854            |  185 | 29/05/15 | 07:14:52 | 5.346E+02 |
 |                           |  186 | 29/05/15 | 07:14:52 | 5.346E+02 |
 |                           |  187 | 29/05/15 | 07:14:52 | 5.346E+02 |
 |                           |  188 | 29/05/15 | 07:14:52 | 5.346E+02 |
 |                           |  189 | 29/05/15 | 07:14:52 | 5.346E+02 |
 |                           |  190 | 29/05/15 | 07:14:52 | 5.346E+02 |
 |                           |  191 | 29/05/15 | 07:14:52 | 5.346E+02 |
 |                           |  192 | 29/05/15 | 07:14:52 | 5.346E+02 |
 +---------------------------+------+----------+----------+-----------+
 | RD000D3A21F25F            |  193 | 29/05/15 | 07:14:52 | 5.271E+02 |
 |                           |  194 | 29/05/15 | 07:14:52 | 5.271E+02 |
 |                           |  195 | 29/05/15 | 07:14:52 | 5.271E+02 |
 |                           |  196 | 29/05/15 | 07:14:52 | 5.271E+02 |
 |                           |  197 | 29/05/15 | 07:14:52 | 5.271E+02 |
 |                           |  198 | 29/05/15 | 07:14:52 | 5.271E+02 |
 |                           |  199 | 29/05/15 | 07:14:52 | 5.271E+02 |
 |                           |  200 | 29/05/15 | 07:14:52 | 5.271E+02 |
 +---------------------------+------+----------+----------+-----------+
 | RD000D3A21F7A7            |  201 | 29/05/15 | 07:14:52 | 5.232E+02 |
 |                           |  202 | 29/05/15 | 07:14:52 | 5.232E+02 |
 |                           |  203 | 29/05/15 | 07:14:52 | 5.232E+02 |
 |                           |  204 | 29/05/15 | 07:14:52 | 5.232E+02 |
 |                           |  205 | 29/05/15 | 07:14:52 | 5.232E+02 |
 |                           |  206 | 29/05/15 | 07:14:52 | 5.232E+02 |
 |                           |  207 | 29/05/15 | 07:14:52 | 5.232E+02 |
 |                           |  208 | 29/05/15 | 07:14:52 | 5.232E+02 |
 +---------------------------+------+----------+----------+-----------+
 | RD000D3A21FA60            |  209 | 29/05/15 | 07:14:52 | 5.202E+02 |
 |                           |  210 | 29/05/15 | 07:14:52 | 5.202E+02 |
 |                           |  211 | 29/05/15 | 07:14:52 | 5.202E+02 |
 |                           |  212 | 29/05/15 | 07:14:52 | 5.202E+02 |
 |                           |  213 | 29/05/15 | 07:14:52 | 5.202E+02 |
 |                           |  214 | 29/05/15 | 07:14:52 | 5.202E+02 |
 |                           |  215 | 29/05/15 | 07:14:52 | 5.202E+02 |
 |                           |  216 | 29/05/15 | 07:14:52 | 5.202E+02 |
 +---------------------------+------+----------+----------+-----------+
 | RD000D3A21FEFD            |  217 | 29/05/15 | 07:14:52 | 5.197E+02 |
 |                           |  218 | 29/05/15 | 07:14:52 | 5.197E+02 |
 |                           |  219 | 29/05/15 | 07:14:52 | 5.197E+02 |
 |                           |  220 | 29/05/15 | 07:14:52 | 5.197E+02 |
 |                           |  221 | 29/05/15 | 07:14:52 | 5.197E+02 |
 |                           |  222 | 29/05/15 | 07:14:52 | 5.197E+02 |
 |                           |  223 | 29/05/15 | 07:14:52 | 5.197E+02 |
 |                           |  224 | 29/05/15 | 07:14:52 | 5.197E+02 |
 +---------------------------+------+----------+----------+-----------+
 | RD000D3A21FC08            |  225 | 29/05/15 | 07:14:52 | 5.337E+02 |
 |                           |  226 | 29/05/15 | 07:14:52 | 5.337E+02 |
 |                           |  227 | 29/05/15 | 07:14:52 | 5.337E+02 |
 |                           |  228 | 29/05/15 | 07:14:52 | 5.337E+02 |
 |                           |  229 | 29/05/15 | 07:14:52 | 5.337E+02 |
 |                           |  230 | 29/05/15 | 07:14:52 | 5.337E+02 |
 |                           |  231 | 29/05/15 | 07:14:52 | 5.337E+02 |
 |                           |  232 | 29/05/15 | 07:14:52 | 5.337E+02 |
 +---------------------------+------+----------+----------+-----------+
 | RD000D3A21F275            |  233 | 29/05/15 | 07:14:52 | 5.211E+02 |
 |                           |  234 | 29/05/15 | 07:14:52 | 5.211E+02 |
 |                           |  235 | 29/05/15 | 07:14:52 | 5.211E+02 |
 |                           |  236 | 29/05/15 | 07:14:52 | 5.211E+02 |
 |                           |  237 | 29/05/15 | 07:14:52 | 5.211E+02 |
 |                           |  238 | 29/05/15 | 07:14:52 | 5.211E+02 |
 |                           |  239 | 29/05/15 | 07:14:52 | 5.211E+02 |
 |                           |  240 | 29/05/15 | 07:14:52 | 5.211E+02 |
 +---------------------------+------+----------+----------+-----------+
 | RD000D3A21F95A            |  241 | 29/05/15 | 07:14:52 | 5.204E+02 |
 |                           |  242 | 29/05/15 | 07:14:52 | 5.204E+02 |
 |                           |  243 | 29/05/15 | 07:14:52 | 5.204E+02 |
 |                           |  244 | 29/05/15 | 07:14:52 | 5.204E+02 |
 |                           |  245 | 29/05/15 | 07:14:52 | 5.204E+02 |
 |                           |  246 | 29/05/15 | 07:14:52 | 5.204E+02 |
 |                           |  247 | 29/05/15 | 07:14:52 | 5.204E+02 |
 |                           |  248 | 29/05/15 | 07:14:52 | 5.204E+02 |
 +---------------------------+------+----------+----------+-----------+
 | RD000D3A21F4A5            |  249 | 29/05/15 | 07:14:52 | 5.325E+02 |
 |                           |  250 | 29/05/15 | 07:14:52 | 5.325E+02 |
 |                           |  251 | 29/05/15 | 07:14:52 | 5.325E+02 |
 |                           |  252 | 29/05/15 | 07:14:52 | 5.325E+02 |
 |                           |  253 | 29/05/15 | 07:14:52 | 5.325E+02 |
 |                           |  254 | 29/05/15 | 07:14:52 | 5.325E+02 |
 |                           |  255 | 29/05/15 | 07:14:52 | 5.325E+02 |
 |                           |  256 | 29/05/15 | 07:14:52 | 5.325E+02 |
 +---------------------------+------+----------+----------+-----------+

 Total wall clock time: 5.167E+02 seconds
             or: (          0:         0:         8:    36.685 )
                 (       Days:     Hours:   Minutes:   Seconds )



 --> Final synchronization point reached by all partitions.
End of solution stage.

 +--------------------------------------------------------------------+
 | The results from this run of the ANSYS CFX Solver have been        |
 | written to                                                         |
 | \\10.10.13.6\C\Resources\directory\3301acebc8f4463d990a819988261b- |
 | b5.HSR.AzureEE.HpcWorkerRole.jobdata\job-3\pipe04_001.res          |
 +--------------------------------------------------------------------+


This run of the ANSYS CFX Solver has finished.
