 This run of the CFX-15.0.7 Solver started at 21:55:37 on 31 May 2015 by
 user MpiUser on RD000D3A20F82B (intel_xeon64.sse2_winnt) using the
 command:
 
  "\\hsransys.file.core.windows.net\main\apps\ANSYS Inc\v150\CFX\bin\perllib\cfx5solve.pl"
    -def pipe07.def -chdir
    \\10.10.13.6\C\Resources\directory\bc93f7dd415240d49edbf818f90344bc.HSR.AzureEE.HpcWorkerRole.jobdata\job-8
    -start-method MSMPI2 -part 256
 
 Point Releases and Patches installed:
 
  ANSYS, Inc. Products 15.0.7
  ANSYS Mechanical Products 15.0.7
  ANSYS Autodyn 15.0.7
  ANSYS LS-DYNA 15.0.7
  ANSYS CFX (includes ANSYS CFD-Post) 15.0.7
  ANSYS Fluent (includes ANSYS CFD-Post) 15.0.7
  ANSYS TurboGrid 15.0.7
  ANSYS Polyflow (includes ANSYS CFD-Post) 15.0.7
  ANSYS Aqwa 15.0.7
  ANSYS ICEM CFD 15.0.7
  ANSYS Icepak (includes ANSYS CFD-Post) 15.0.7
  Catia, Version 6 15.0.7
  ANSYS, Inc. License Manager 15.0.7
 
 Setting up CFX Solver run ...
 

 +--------------------------------------------------------------------+
 |                              Warning!                              |
 |                                                                    |
 | The working directory is a UNC path, but the Windows command shell |
 | is currently not configured to support UNC paths. This may cause   |
 | failure of the CFX Solver.                                         |
 |                                                                    |
 | Command shell support for UNC paths can be enabled by setting the  |
 | Windows registry key DisableUNCCheck.                              |
 +--------------------------------------------------------------------+


 +--------------------------------------------------------------------+
 |                                                                    |
 |                    CFX Command Language Upgrade                    |
 |                                                                    |
 +--------------------------------------------------------------------+

 Added /SIMULATION CONTROL/EXECUTION CONTROL/EXECUTABLE SELECTION/Double
 Precision = Off.
 

 +--------------------------------------------------------------------+
 |                                                                    |
 |                    CFX Command Language for Run                    |
 |                                                                    |
 +--------------------------------------------------------------------+

 LIBRARY:
   CEL:
     EXPRESSIONS:
       DeltaT = probe(T)@MP3-273.15[K]
     END
   END
   MATERIAL: PE100RC
     Material Group = CHT Solids
     Option = Pure Substance
     Thermodynamic State = Solid
     PROPERTIES:
       Option = General Material
       EQUATION OF STATE:
         Density = 960 [kg m^-3]
         Molar Mass = 1.0 [kg kmol^-1]
         Option = Value
       END
       SPECIFIC HEAT CAPACITY:
         Option = Value
         Specific Heat Capacity = 1900 [J kg^-1 K^-1]
       END
       THERMAL CONDUCTIVITY:
         Option = Value
         Thermal Conductivity = 0.38 [W m^-1 K^-1]
       END
     END
   END
   MATERIAL: Water Glycol Mixture
     Material Description = Water (liquid)
     Material Group = Water Data,Constant Property Liquids
     Option = Pure Substance
     Thermodynamic State = Liquid
     PROPERTIES:
       Option = General Material
       EQUATION OF STATE:
         Density = 1042 [kg m^-3]
         Molar Mass = 18.02 [kg kmol^-1]
         Option = Value
       END
       SPECIFIC HEAT CAPACITY:
         Option = Value
         Specific Heat Capacity = 3481 [J kg^-1 K^-1]
         Specific Heat Type = Constant Pressure
       END
       REFERENCE STATE:
         Option = Specified Point
         Reference Pressure = 1 [atm]
         Reference Specific Enthalpy = 0.0 [J/kg]
         Reference Specific Entropy = 0.0 [J/kg/K]
         Reference Temperature = 0 [C]
       END
       DYNAMIC VISCOSITY:
         Dynamic Viscosity = 8.899E-4 [kg m^-1 s^-1]
         Option = Value
       END
       THERMAL CONDUCTIVITY:
         Option = Value
         Thermal Conductivity = 0.6069 [W m^-1 K^-1]
       END
       ABSORPTION COEFFICIENT:
         Absorption Coefficient = 1.0 [m^-1]
         Option = Value
       END
       SCATTERING COEFFICIENT:
         Option = Value
         Scattering Coefficient = 0.0 [m^-1]
       END
       REFRACTIVE INDEX:
         Option = Value
         Refractive Index = 1.0 [m m^-1]
       END
       THERMAL EXPANSIVITY:
         Option = Value
         Thermal Expansivity = 2.57E-04 [K^-1]
       END
     END
   END
 END
 FLOW: Flow Analysis 1
   SOLUTION UNITS:
     Angle Units = [rad]
     Length Units = [m]
     Mass Units = [kg]
     Solid Angle Units = [sr]
     Temperature Units = [K]
     Time Units = [s]
   END
   ANALYSIS TYPE:
     Option = Steady State
     EXTERNAL SOLVER COUPLING:
       Option = None
     END
   END
   DOMAIN: FluidDom
     Coord Frame = Coord 0
     Domain Type = Fluid
     Location = B446
     BOUNDARY: Default Fluid Solid Interface Side 1
       Boundary Type = INTERFACE
       Location = F449.446,F450.446,F452.446,F453.446,F454.446
       BOUNDARY CONDITIONS:
         HEAT TRANSFER:
           Option = Conservative Interface Flux
         END
         MASS AND MOMENTUM:
           Option = No Slip Wall
         END
         WALL ROUGHNESS:
           Option = Smooth Wall
         END
       END
     END
     BOUNDARY: Domain Interface 1 Side 1 1
       Boundary Type = INTERFACE
       Location = FluidSym01
       BOUNDARY CONDITIONS:
         HEAT TRANSFER:
           Option = Conservative Interface Flux
         END
         MASS AND MOMENTUM:
           Option = Conservative Interface Flux
         END
         TURBULENCE:
           Option = Conservative Interface Flux
         END
       END
     END
     BOUNDARY: Domain Interface 2 Side 1
       Boundary Type = INTERFACE
       Location = FluidSym02
       BOUNDARY CONDITIONS:
         HEAT TRANSFER:
           Option = Conservative Interface Flux
         END
         MASS AND MOMENTUM:
           Option = Conservative Interface Flux
         END
         TURBULENCE:
           Option = Conservative Interface Flux
         END
       END
     END
     BOUNDARY: Inlet
       Boundary Type = INLET
       Location = F447.446
       BOUNDARY CONDITIONS:
         FLOW REGIME:
           Option = Subsonic
         END
         HEAT TRANSFER:
           Option = Static Temperature
           Static Temperature = 273.15 [K]
         END
         MASS AND MOMENTUM:
           Normal Speed = 0.1 [m s^-1]
           Option = Normal Speed
         END
         TURBULENCE:
           Option = Medium Intensity and Eddy Viscosity Ratio
         END
       END
     END
     BOUNDARY: Outlet
       Boundary Type = OUTLET
       Location = F451.446
       BOUNDARY CONDITIONS:
         FLOW REGIME:
           Option = Subsonic
         END
         MASS AND MOMENTUM:
           Normal Speed = 0.1 [m s^-1]
           Option = Normal Speed
         END
       END
     END
     DOMAIN MODELS:
       BUOYANCY MODEL:
         Option = Non Buoyant
       END
       DOMAIN MOTION:
         Option = Stationary
       END
       MESH DEFORMATION:
         Option = None
       END
       REFERENCE PRESSURE:
         Reference Pressure = 1 [atm]
       END
     END
     FLUID DEFINITION: Fluid 1
       Material = Water Glycol Mixture
       Option = Material Library
       MORPHOLOGY:
         Option = Continuous Fluid
       END
     END
     FLUID MODELS:
       COMBUSTION MODEL:
         Option = None
       END
       HEAT TRANSFER MODEL:
         Option = Thermal Energy
       END
       THERMAL RADIATION MODEL:
         Option = None
       END
       TURBULENCE MODEL:
         Option = k epsilon
       END
       TURBULENT WALL FUNCTIONS:
         Option = Scalable
       END
     END
     SOURCE POINT: Origin
       Cartesian Coordinates = 0.0[m],0.0[m],0.0[m]
       Option = Cartesian Coordinates
     END
   END
   DOMAIN: TubeDom
     Coord Frame = Coord 0
     Domain Type = Solid
     Location = B378,B662
     BOUNDARY: Default Fluid Solid Interface Side 2
       Boundary Type = INTERFACE
       Location = \
         F379.378,F380.378,F381.378,F382.378,F383.378,F666.662,F668.662,F670.6\
         62,F672.662,F674.662
       BOUNDARY CONDITIONS:
         HEAT TRANSFER:
           Option = Conservative Interface Flux
         END
       END
     END
     BOUNDARY: Domain Interface 1 Side 1
       Boundary Type = INTERFACE
       Location = TubeIntFace01
       BOUNDARY CONDITIONS:
         HEAT TRANSFER:
           Option = Conservative Interface Flux
         END
       END
     END
     BOUNDARY: Domain Interface 1 Side 2
       Boundary Type = INTERFACE
       Location = TubeIntFace02
       BOUNDARY CONDITIONS:
         HEAT TRANSFER:
           Option = Conservative Interface Flux
         END
       END
     END
     BOUNDARY: Domain Interface 2 Side 2
       Boundary Type = INTERFACE
       Location = TubeSymFace01
       BOUNDARY CONDITIONS:
         HEAT TRANSFER:
           Option = Conservative Interface Flux
         END
       END
     END
     BOUNDARY: SymmetrieSolid Side 1
       Boundary Type = INTERFACE
       Location = TubeSymFace02
       BOUNDARY CONDITIONS:
         HEAT TRANSFER:
           Option = Conservative Interface Flux
         END
       END
     END
     BOUNDARY: TubeDom Default
       Boundary Type = WALL
       Location = \
         F390.378,F391.378,F392.378,F393.378,F394.378,F676.662,F677.662,F678.6\
         62,F679.662,F680.662
       BOUNDARY CONDITIONS:
         HEAT TRANSFER:
           Option = Adiabatic
         END
       END
     END
     BOUNDARY: TubeOuterWallAdia
       Boundary Type = WALL
       Location = TubeOuterWall01
       BOUNDARY CONDITIONS:
         HEAT TRANSFER:
           Option = Adiabatic
         END
       END
     END
     BOUNDARY: TubeOuterWallHeatex
       Boundary Type = WALL
       Location = TubeOuterWall02
       BOUNDARY CONDITIONS:
         HEAT TRANSFER:
           Fixed Temperature = 283.15 [K]
           Option = Fixed Temperature
         END
       END
     END
     DOMAIN MODELS:
       DOMAIN MOTION:
         Option = Stationary
       END
       MESH DEFORMATION:
         Option = None
       END
     END
     SOLID DEFINITION: Solid 1
       Material = PE100RC
       Option = Material Library
       MORPHOLOGY:
         Option = Continuous Solid
       END
     END
     SOLID MODELS:
       HEAT TRANSFER MODEL:
         Option = Thermal Energy
       END
       THERMAL RADIATION MODEL:
         Option = None
       END
     END
   END
   DOMAIN INTERFACE: Default Fluid Solid Interface
     Boundary List1 = Default Fluid Solid Interface Side 1
     Boundary List2 = Default Fluid Solid Interface Side 2
     Interface Type = Fluid Solid
     INTERFACE MODELS:
       Option = General Connection
       FRAME CHANGE:
         Option = None
       END
       PITCH CHANGE:
         Option = None
       END
     END
     MESH CONNECTION:
       Option = Automatic
     END
   END
   DOMAIN INTERFACE: Domain Interface 1
     Boundary List1 = Domain Interface 1 Side 1
     Boundary List2 = Domain Interface 1 Side 2
     Interface Type = Solid Solid
     INTERFACE MODELS:
       Option = General Connection
       FRAME CHANGE:
         Option = None
       END
       PITCH CHANGE:
         Option = None
       END
     END
     MESH CONNECTION:
       Option = Automatic
     END
   END
   DOMAIN INTERFACE: SymmetrieFluid
     Boundary List1 = Domain Interface 1 Side 1 1
     Boundary List2 = Domain Interface 2 Side 1
     Interface Type = Fluid Fluid
     INTERFACE MODELS:
       Option = Rotational Periodicity
       AXIS DEFINITION:
         Option = Coordinate Axis
         Rotation Axis = Coord 0.1
       END
     END
     MESH CONNECTION:
       Option = GGI
       INTERSECTION CONTROL:
         Option = Direct
         Periodic Axial Radial Tolerance = 0.001
       END
     END
   END
   DOMAIN INTERFACE: SymmetrieSolid
     Boundary List1 = Domain Interface 2 Side 2
     Boundary List2 = SymmetrieSolid Side 1
     Interface Type = Solid Solid
     INTERFACE MODELS:
       Option = Rotational Periodicity
       AXIS DEFINITION:
         Option = Coordinate Axis
         Rotation Axis = Coord 0.1
       END
     END
     MESH CONNECTION:
       Option = Automatic
       INTERSECTION CONTROL:
         Option = Direct
         Periodic Axial Radial Tolerance = 0.0001
       END
     END
   END
   OUTPUT CONTROL:
     MONITOR OBJECTS:
       MONITOR BALANCES:
         Option = Full
       END
       MONITOR FORCES:
         Option = Full
       END
       MONITOR PARTICLES:
         Option = Full
       END
       MONITOR POINT: MP1
         Cartesian Coordinates = 2.5 [m], 0 [m], 0 [m]
         Coord Frame = Coord 0
         Option = Cartesian Coordinates
         Output Variables List = Courant Number,Pressure,Temperature,Velocity
         MONITOR LOCATION CONTROL:
           Interpolation Type = Nearest Vertex
         END
         POSITION UPDATE FREQUENCY:
           Option = Initial Mesh Only
         END
       END
       MONITOR POINT: MP2
         Cartesian Coordinates = 2.5 [m], 0.012 [m], 0 [m]
         Coord Frame = Coord 0
         Option = Cartesian Coordinates
         Output Variables List = Courant Number,Pressure,Temperature,Velocity
         MONITOR LOCATION CONTROL:
           Interpolation Type = Nearest Vertex
         END
         POSITION UPDATE FREQUENCY:
           Option = Initial Mesh Only
         END
       END
       MONITOR POINT: MP3
         Cartesian Coordinates = 2.5 [m], 0.024 [m], 0 [m]
         Coord Frame = Coord 0
         Option = Cartesian Coordinates
         Output Variables List = Courant Number,Pressure,Temperature,Velocity
         MONITOR LOCATION CONTROL:
           Interpolation Type = Nearest Vertex
         END
         POSITION UPDATE FREQUENCY:
           Option = Initial Mesh Only
         END
       END
       MONITOR POINT: MP3_1
         Coord Frame = Coord 0
         Expression Value = DeltaT
         Option = Expression
       END
       MONITOR RESIDUALS:
         Option = Full
       END
       MONITOR TOTALS:
         Option = Full
       END
     END
     RESULTS:
       File Compression Level = Default
       Option = Standard
     END
   END
   SOLVER CONTROL:
     Turbulence Numerics = First Order
     ADVECTION SCHEME:
       Option = High Resolution
     END
     CONVERGENCE CONTROL:
       Length Scale Option = Conservative
       Maximum Number of Iterations = 200
       Minimum Number of Iterations = 1
       Solid Timescale Control = Auto Timescale
       Timescale Control = Auto Timescale
       Timescale Factor = 1.0
     END
     CONVERGENCE CRITERIA:
       Residual Target = 0.000001
       Residual Type = RMS
     END
     DYNAMIC MODEL CONTROL:
       Global Dynamic Model Control = On
     END
   END
 END
 COMMAND FILE:
   Version = 16.0
   Results Version = 15.0.7
 END
 SIMULATION CONTROL:
   EXECUTION CONTROL:
     EXECUTABLE SELECTION:
       Double Precision = Off
     END
     PARALLEL HOST LIBRARY:
       HOST DEFINITION: rd000d3a20f82b
         Host Architecture String = winnt-amd64
         Installation Root = \\hsransys.file.core.windows.net\main\apps\ANSYS \
           Inc\v%v\CFX
       END
     END
     PARTITIONER STEP CONTROL:
       PARTITIONING TYPE:
         Option = MeTiS
         MeTiS Type = k-way
         Partition Size Rule = Automatic
         Partition Weight Factors = 0.00391, 0.00391, 0.00391, 0.00391, \
           0.00391, 0.00391, 0.00391, 0.00391, 0.00391, 0.00391, 0.00391, \
           0.00391, 0.00391, 0.00391, 0.00391, 0.00391, 0.00391, 0.00391, \
           0.00391, 0.00391, 0.00391, 0.00391, 0.00391, 0.00391, 0.00391, \
           0.00391, 0.00391, 0.00391, 0.00391, 0.00391, 0.00391, 0.00391, \
           0.00391, 0.00391, 0.00391, 0.00391, 0.00391, 0.00391, 0.00391, \
           0.00391, 0.00391, 0.00391, 0.00391, 0.00391, 0.00391, 0.00391, \
           0.00391, 0.00391, 0.00391, 0.00391, 0.00391, 0.00391, 0.00391, \
           0.00391, 0.00391, 0.00391, 0.00391, 0.00391, 0.00391, 0.00391, \
           0.00391, 0.00391, 0.00391, 0.00391, 0.00391, 0.00391, 0.00391, \
           0.00391, 0.00391, 0.00391, 0.00391, 0.00391, 0.00391, 0.00391, \
           0.00391, 0.00391, 0.00391, 0.00391, 0.00391, 0.00391, 0.00391, \
           0.00391, 0.00391, 0.00391, 0.00391, 0.00391, 0.00391, 0.00391, \
           0.00391, 0.00391, 0.00391, 0.00391, 0.00391, 0.00391, 0.00391, \
           0.00391, 0.00391, 0.00391, 0.00391, 0.00391, 0.00391, 0.00391, \
           0.00391, 0.00391, 0.00391, 0.00391, 0.00391, 0.00391, 0.00391, \
           0.00391, 0.00391, 0.00391, 0.00391, 0.00391, 0.00391, 0.00391, \
           0.00391, 0.00391, 0.00391, 0.00391, 0.00391, 0.00391, 0.00391, \
           0.00391, 0.00391, 0.00391, 0.00391, 0.00391, 0.00391, 0.00391, \
           0.00391, 0.00391, 0.00391, 0.00391, 0.00391, 0.00391, 0.00391, \
           0.00391, 0.00391, 0.00391, 0.00391, 0.00391, 0.00391, 0.00391, \
           0.00391, 0.00391, 0.00391, 0.00391, 0.00391, 0.00391, 0.00391, \
           0.00391, 0.00391, 0.00391, 0.00391, 0.00391, 0.00391, 0.00391, \
           0.00391, 0.00391, 0.00391, 0.00391, 0.00391, 0.00391, 0.00391, \
           0.00391, 0.00391, 0.00391, 0.00391, 0.00391, 0.00391, 0.00391, \
           0.00391, 0.00391, 0.00391, 0.00391, 0.00391, 0.00391, 0.00391, \
           0.00391, 0.00391, 0.00391, 0.00391, 0.00391, 0.00391, 0.00391, \
           0.00391, 0.00391, 0.00391, 0.00391, 0.00391, 0.00391, 0.00391, \
           0.00391, 0.00391, 0.00391, 0.00391, 0.00391, 0.00391, 0.00391, \
           0.00391, 0.00391, 0.00391, 0.00391, 0.00391, 0.00391, 0.00391, \
           0.00391, 0.00391, 0.00391, 0.00391, 0.00391, 0.00391, 0.00391, \
           0.00391, 0.00391, 0.00391, 0.00391, 0.00391, 0.00391, 0.00391, \
           0.00391, 0.00391, 0.00391, 0.00391, 0.00391, 0.00391, 0.00391, \
           0.00391, 0.00391, 0.00391, 0.00391, 0.00391, 0.00391, 0.00391, \
           0.00391, 0.00391, 0.00391, 0.00391, 0.00391, 0.00391, 0.00391, \
           0.00391, 0.00391, 0.00391, 0.00391, 0.00391, 0.00391, 0.00391, \
           0.00391, 0.00391, 0.00391, 0.00391, 0.00391, 0.00391, 0.00391
       END
     END
     RUN DEFINITION:
       Solver Input File = \
         \\10.10.13.6\C\Resources\directory\bc93f7dd415240d49edbf818f90344bc.H\
         SR.AzureEE.HpcWorkerRole.jobdata\job-8\pipe07.def
       Run Mode = Full
     END
     SOLVER STEP CONTROL:
       PARALLEL ENVIRONMENT:
         Start Method = MSMPI2
         Number of Processes = 256
         Parallel Host List = rd000d3a20f82b*256
       END
     END
   END
 END
 

 +--------------------------------------------------------------------+
 |                                                                    |
 |                            Partitioning                            |
 |                                                                    |
 +--------------------------------------------------------------------+




 +--------------------------------------------------------------------+
 |                                                                    |
 |                 ANSYS(R) CFX(R) Partitioner 15.0.7                 |
 |                                                                    |
 | Version 2014.04.10-23.00-131675     Thu Apr 10 23:23:37 GMTDT 2014 |
 |                                                                    |
 |                        Executable Attributes                       |
 |                                                                    |
 |          single-64bit-int32-supfort-optimised-noprof-lcomp         |
 |                                                                    |
 | (C) 2014 ANSYS, Inc.                                               |
 |                                                                    |
 | All rights reserved. Unauthorized use, distribution or duplication |
 | is prohibited. This product is subject to U.S. laws governing      |
 | export and re-export. For full Legal Notice, see documentation.    |
 +--------------------------------------------------------------------+




 +--------------------------------------------------------------------+
 |                  Job Information at Start of Run                   |
 +--------------------------------------------------------------------+

 Run mode:       partitioning run

 +------------------------------+------+--------+----------+----------+
 | Host                         | Mesh |  PID   |     Job Started     |
 |                              | Part |        | DD/MM/YY | hh:mm:ss |
 +------------------------------+------+--------+----------+----------+
 | RD000D3A20F82B               |    1 |   3084 | 31/05/15 | 21:55:48 |
 +------------------------------+------+--------+----------+----------+


 +--------------------------------------------------------------------+
 |        Memory Allocated for Run  (Actual usage may be less)        |
 +--------------------------------------------------------------------+

           | Real       | Integer    | Character | Logical  | Double
 ----------+------------+------------+-----------+----------+----------
 Mwords    |     177.15 |     420.77 |      3.39 |     0.12 |     1.20
 Mbytes    |     675.79 |    1605.11 |      3.24 |     0.46 |     9.16
 ----------+------------+------------+-----------+----------+----------


 +--------------------------------------------------------------------+
 |                  Host Memory Information (Mbytes)                  |
 +--------------------------------------------------------------------+
 |          Host           |     System     |   Allocated    |   %    |
 +-------------------------+----------------+----------------+--------+
 | RD000D3A20F82B          |     57343.55   |      2293.74   |   4.00 |
 +-------------------------+----------------+----------------+--------+

 +--------------------------------------------------------------------+
 |                          Mesh Statistics                           |
 +--------------------------------------------------------------------+

 Domain Name : FluidDom

     Total Number of Nodes                                =     8401400

     Total Number of Elements                             =     7890000
         Total Number of Prisms                           =       48000
         Total Number of Hexahedrons                      =     7842000

     Total Number of Faces                                =     1058630

 Domain Name : TubeDom

     Total Number of Nodes                                =      125390

     Total Number of Elements                             =      211299
         Total Number of Tetrahedrons                     =      165197
         Total Number of Hexahedrons                      =       46102

     Total Number of Faces                                =      151090
 
 Global Statistics :

     Global Number of Nodes                               =     8526790

     Global Number of Elements                            =     8101299
         Total Number of Tetrahedrons                     =      165197
         Total Number of Prisms                           =       48000
         Total Number of Hexahedrons                      =     7888102

     Global Number of Faces                               =     1209720

 Domain Interface Name : Default Fluid Solid Interface

     Discretization type                                  =         GGI
     Intersection type                                    =      Direct
     Non-overlap area fraction on side 1                  =    8.28E-02
     Non-overlap area fraction on side 2                  =    7.62E-02

 Domain Interface Name : Domain Interface 1

     Discretization type                                  =         GGI
     Intersection type                                    =      Direct
     Non-overlap area fraction on side 1                  =    5.55E-02
     Non-overlap area fraction on side 2                  =    3.62E-02

 Domain Interface Name : SymmetrieFluid

     Discretization type                                  =         GGI
     Intersection type                                    =      Direct
     Non-overlap area fraction on side 1                  =    4.24E-08
     Non-overlap area fraction on side 2                  =    0.00E+00

 Domain Interface Name : SymmetrieSolid

     Discretization type                                  =         GGI
     Intersection type                                    =      Direct
     Non-overlap area fraction on side 1                  =    7.16E-06
     Non-overlap area fraction on side 2                  =    3.82E-06

 +--------------------------------------------------------------------+
 |                     Vertex Based Partitioning                      |
 +--------------------------------------------------------------------+

 Partitioning of domain: FluidDom

 - Partitioning tool:       MeTiS multilevel k-way algorithm
 - Number of partitions:           256
 - Number of graph-nodes:      8401400
 - Number of graph-edges:     54616200

 Partitioning of domain: TubeDom

 - Partitioning tool:       MeTiS multilevel k-way algorithm
 - Number of partitions:           256
 - Number of graph-nodes:       125390
 - Number of graph-edges:      1012332

 +--------------------------------------------------------------------+
 |                      Partitioning Information                      |
 +--------------------------------------------------------------------+

 Partitioning information for domain: FluidDom

        +------------------+------------------------+-----------------+
        |     Elements     |        Vertices        |     Faces       |
 +------+------------------+------------------------+-----------------+
 | Part |   Number     %   |   Number     %   %Ovlp |  Number     %   |
 +------+------------------+------------------------+-----------------+
 | Full |   7890000        |   8401400              |  1058630        |
 +------+------------------+------------------------+-----------------+
 |    1 |     34516    0.4 |     39491    0.4  14.9 |     5020    0.3 |
 |    2 |     32090    0.4 |     37638    0.4  16.6 |     6351    0.4 |
 |    3 |     34304    0.4 |     39894    0.4  16.3 |     5775    0.4 |
 |    4 |     34956    0.4 |     40404    0.4  16.8 |     5486    0.4 |
 |    5 |     33245    0.4 |     38541    0.4  16.9 |     5297    0.3 |
 |    6 |     33917    0.4 |     39150    0.4  16.0 |     5311    0.3 |
 |    7 |     35198    0.4 |     40243    0.4  14.8 |     5185    0.3 |
 |    8 |     31984    0.4 |     37260    0.4  15.9 |     6125    0.4 |
 |    9 |     33537    0.4 |     38803    0.4  17.1 |     5239    0.3 |
 |   10 |     33075    0.4 |     38617    0.4  17.0 |     5719    0.4 |
 |   11 |     33677    0.4 |     39298    0.4  17.3 |     5838    0.4 |
 |   12 |     34769    0.4 |     39707    0.4  15.0 |     5023    0.3 |
 |   13 |     31765    0.4 |     37529    0.4  17.3 |     6493    0.4 |
 |   14 |     35418    0.4 |     40437    0.4  15.0 |     4917    0.3 |
 |   15 |     33770    0.4 |     38862    0.4  16.6 |     5026    0.3 |
 |   16 |     33273    0.4 |     38626    0.4  14.7 |     6291    0.4 |
 |   17 |     35101    0.4 |     40478    0.4  15.8 |     5504    0.4 |
 |   18 |     32372    0.4 |     37711    0.4  16.2 |     5755    0.4 |
 |   19 |     35228    0.4 |     40349    0.4  15.2 |     5346    0.3 |
 |   20 |     34438    0.4 |     40106    0.4  17.2 |     5804    0.4 |
 |   21 |     31577    0.4 |     37264    0.4  16.8 |     6617    0.4 |
 |   22 |     33547    0.4 |     38388    0.4  14.8 |     4950    0.3 |
 |   23 |     34251    0.4 |     39459    0.4  16.3 |     5185    0.3 |
 |   24 |     33829    0.4 |     39572    0.4  16.9 |     6224    0.4 |
 |   25 |     33563    0.4 |     39185    0.4  16.4 |     6079    0.4 |
 |   26 |     33424    0.4 |     38318    0.4  15.4 |     4870    0.3 |
 |   27 |     33445    0.4 |     38634    0.4  16.4 |     5245    0.3 |
 |   28 |     33565    0.4 |     38934    0.4  16.6 |     5728    0.4 |
 |   29 |     34308    0.4 |     39189    0.4  14.7 |     5103    0.3 |
 |   30 |     33556    0.4 |     38882    0.4  15.2 |     6034    0.4 |
 |   31 |     32727    0.4 |     38239    0.4  16.9 |     6089    0.4 |
 |   32 |     34733    0.4 |     39473    0.4  13.5 |     5034    0.3 |
 |   33 |     33469    0.4 |     38921    0.4  17.6 |     5439    0.4 |
 |   34 |     33916    0.4 |     38928    0.4  14.8 |     5252    0.3 |
 |   35 |     32319    0.4 |     37753    0.4  16.7 |     6014    0.4 |
 |   36 |     34741    0.4 |     39873    0.4  15.4 |     5279    0.3 |
 |   37 |     33253    0.4 |     38801    0.4  16.4 |     6110    0.4 |
 |   38 |     34278    0.4 |     39262    0.4  14.9 |     5285    0.3 |
 |   39 |     31831    0.4 |     37493    0.4  17.1 |     6366    0.4 |
 |   40 |     35259    0.4 |     40116    0.4  14.5 |     4861    0.3 |
 |   41 |     34498    0.4 |     40268    0.4  17.4 |     5904    0.4 |
 |   42 |     34774    0.4 |     39950    0.4  14.9 |     5396    0.3 |
 |   43 |     32095    0.4 |     37432    0.4  15.8 |     5939    0.4 |
 |   44 |     34686    0.4 |     39972    0.4  16.8 |     5176    0.3 |
 |   45 |     34565    0.4 |     39486    0.4  14.6 |     5168    0.3 |
 |   46 |     31905    0.4 |     37353    0.4  16.4 |     6252    0.4 |
 |   47 |     33601    0.4 |     39376    0.4  18.7 |     5612    0.4 |
 |   48 |     34254    0.4 |     39388    0.4  16.1 |     4979    0.3 |
 |   49 |     35182    0.4 |     40510    0.4  16.0 |     5470    0.4 |
 |   50 |     31484    0.4 |     36742    0.4  15.3 |     6097    0.4 |
 |   51 |     34285    0.4 |     39206    0.4  14.9 |     5128    0.3 |
 |   52 |     33193    0.4 |     38745    0.4  15.9 |     6322    0.4 |
 |   53 |     34731    0.4 |     39896    0.4  15.0 |     5340    0.3 |
 |   54 |     35116    0.4 |     40793    0.4  17.8 |     5547    0.4 |
 |   55 |     31941    0.4 |     37309    0.4  15.9 |     6147    0.4 |
 |   56 |     34954    0.4 |     40002    0.4  14.7 |     5386    0.3 |
 |   57 |     33991    0.4 |     39512    0.4  17.4 |     5646    0.4 |
 |   58 |     34875    0.4 |     40181    0.4  15.8 |     5330    0.3 |
 |   59 |     31583    0.4 |     36960    0.4  15.8 |     6190    0.4 |
 |   60 |     35184    0.4 |     40197    0.4  14.8 |     5187    0.3 |
 |   61 |     32721    0.4 |     38156    0.4  16.0 |     6203    0.4 |
 |   62 |     33658    0.4 |     38556    0.4  14.9 |     5128    0.3 |
 |   63 |     32877    0.4 |     38187    0.4  15.8 |     5854    0.4 |
 |   64 |     34932    0.4 |     40082    0.4  15.4 |     5204    0.3 |
 |   65 |     35300    0.4 |     40527    0.4  16.4 |     4942    0.3 |
 |   66 |     35276    0.4 |     40361    0.4  15.9 |     5049    0.3 |
 |   67 |     31570    0.4 |     37260    0.4  15.6 |     6870    0.4 |
 |   68 |     35688    0.4 |     40996    0.4  16.1 |     5218    0.3 |
 |   69 |     33569    0.4 |     39206    0.4  17.8 |     5514    0.4 |
 |   70 |     34330    0.4 |     39451    0.4  15.7 |     5137    0.3 |
 |   71 |     32354    0.4 |     37516    0.4  15.2 |     5763    0.4 |
 |   72 |     35243    0.4 |     40621    0.4  16.1 |     5629    0.4 |
 |   73 |     33316    0.4 |     38237    0.4  14.9 |     5121    0.3 |
 |   74 |     33836    0.4 |     39393    0.4  17.1 |     5730    0.4 |
 |   75 |     35066    0.4 |     40155    0.4  15.2 |     5203    0.3 |
 |   76 |     31028    0.4 |     36691    0.4  16.4 |     6712    0.4 |
 |   77 |     31566    0.4 |     37056    0.4  15.9 |     6480    0.4 |
 |   78 |     35090    0.4 |     40135    0.4  15.3 |     5016    0.3 |
 |   79 |     32428    0.4 |     37712    0.4  15.2 |     6034    0.4 |
 |   80 |     34099    0.4 |     38560    0.4  12.9 |     4591    0.3 |
 |   81 |     32888    0.4 |     38277    0.4  16.8 |     5643    0.4 |
 |   82 |     34239    0.4 |     39389    0.4  15.6 |     5318    0.3 |
 |   83 |     34874    0.4 |     39857    0.4  14.4 |     5255    0.3 |
 |   84 |     32569    0.4 |     38028    0.4  16.4 |     6021    0.4 |
 |   85 |     34759    0.4 |     40333    0.4  16.3 |     5942    0.4 |
 |   86 |     35150    0.4 |     40311    0.4  15.3 |     5258    0.3 |
 |   87 |     33123    0.4 |     38562    0.4  17.1 |     5784    0.4 |
 |   88 |     33994    0.4 |     39060    0.4  14.8 |     5237    0.3 |
 |   89 |     32504    0.4 |     38139    0.4  17.3 |     6099    0.4 |
 |   90 |     34222    0.4 |     38835    0.4  13.3 |     4900    0.3 |
 |   91 |     31949    0.4 |     37525    0.4  16.7 |     6480    0.4 |
 |   92 |     35014    0.4 |     39725    0.4  13.6 |     4898    0.3 |
 |   93 |     32808    0.4 |     38599    0.4  18.2 |     6054    0.4 |
 |   94 |     34993    0.4 |     40261    0.4  15.4 |     5397    0.3 |
 |   95 |     32905    0.4 |     38389    0.4  14.9 |     6485    0.4 |
 |   96 |     32779    0.4 |     37514    0.4  13.3 |     5494    0.4 |
 |   97 |     32265    0.4 |     37692    0.4  15.3 |     6341    0.4 |
 |   98 |     33536    0.4 |     38568    0.4  15.6 |     5191    0.3 |
 |   99 |     32857    0.4 |     38475    0.4  17.1 |     6305    0.4 |
 |  100 |     34372    0.4 |     39181    0.4  14.4 |     4935    0.3 |
 |  101 |     33557    0.4 |     38614    0.4  15.3 |     5293    0.3 |
 |  102 |     34325    0.4 |     39570    0.4  15.8 |     5418    0.3 |
 |  103 |     33862    0.4 |     39635    0.4  17.7 |     5972    0.4 |
 |  104 |     34732    0.4 |     39951    0.4  15.5 |     5462    0.4 |
 |  105 |     32422    0.4 |     37625    0.4  14.6 |     6131    0.4 |
 |  106 |     34871    0.4 |     40126    0.4  16.4 |     5302    0.3 |
 |  107 |     34872    0.4 |     39908    0.4  14.5 |     5359    0.3 |
 |  108 |     32205    0.4 |     37259    0.4  15.0 |     5730    0.4 |
 |  109 |     32562    0.4 |     37810    0.4  14.6 |     6192    0.4 |
 |  110 |     34567    0.4 |     39622    0.4  15.5 |     5243    0.3 |
 |  111 |     33126    0.4 |     38655    0.4  17.5 |     5730    0.4 |
 |  112 |     34363    0.4 |     39550    0.4  15.4 |     5288    0.3 |
 |  113 |     34395    0.4 |     40259    0.4  17.2 |     6219    0.4 |
 |  114 |     34020    0.4 |     39054    0.4  15.4 |     5287    0.3 |
 |  115 |     34424    0.4 |     39755    0.4  16.1 |     5397    0.3 |
 |  116 |     33587    0.4 |     38765    0.4  16.5 |     5101    0.3 |
 |  117 |     34784    0.4 |     40265    0.4  16.2 |     5797    0.4 |
 |  118 |     34569    0.4 |     39727    0.4  15.0 |     5370    0.3 |
 |  119 |     31550    0.4 |     37494    0.4  17.8 |     6870    0.4 |
 |  120 |     35100    0.4 |     40007    0.4  14.8 |     4895    0.3 |
 |  121 |     33283    0.4 |     39128    0.4  17.6 |     6442    0.4 |
 |  122 |     34636    0.4 |     39449    0.4  14.8 |     4812    0.3 |
 |  123 |     32195    0.4 |     37856    0.4  16.9 |     6457    0.4 |
 |  124 |     33911    0.4 |     38539    0.4  13.6 |     4831    0.3 |
 |  125 |     32290    0.4 |     37949    0.4  17.0 |     6426    0.4 |
 |  126 |     34469    0.4 |     39473    0.4  14.2 |     5261    0.3 |
 |  127 |     33305    0.4 |     38334    0.4  15.9 |     5007    0.3 |
 |  128 |     33414    0.4 |     38754    0.4  16.8 |     5449    0.4 |
 |  129 |     34628    0.4 |     40426    0.4  19.3 |     5874    0.4 |
 |  130 |     33821    0.4 |     40529    0.4  20.0 |     7658    0.5 |
 |  131 |     35900    0.4 |     42325    0.4  20.0 |     6789    0.4 |
 |  132 |     35989    0.4 |     42468    0.4  20.2 |     6627    0.4 |
 |  133 |     35672    0.4 |     41586    0.4  19.2 |     5916    0.4 |
 |  134 |     35399    0.4 |     42129    0.4  20.7 |     7132    0.5 |
 |  135 |     35032    0.4 |     40867    0.4  18.8 |     6075    0.4 |
 |  136 |     32769    0.4 |     39190    0.4  20.3 |     7224    0.5 |
 |  137 |     35454    0.4 |     41854    0.4  20.1 |     6455    0.4 |
 |  138 |     34331    0.4 |     40934    0.4  21.3 |     6801    0.4 |
 |  139 |     34453    0.4 |     40311    0.4  19.4 |     5984    0.4 |
 |  140 |     34404    0.4 |     41013    0.4  20.0 |     7368    0.5 |
 |  141 |     33254    0.4 |     39555    0.4  20.3 |     6869    0.4 |
 |  142 |     34381    0.4 |     40290    0.4  19.5 |     6043    0.4 |
 |  143 |     35128    0.4 |     41254    0.4  19.6 |     6255    0.4 |
 |  144 |     33551    0.4 |     39998    0.4  21.0 |     6783    0.4 |
 |  145 |     35762    0.4 |     41756    0.4  19.0 |     6187    0.4 |
 |  146 |     33379    0.4 |     39994    0.4  21.4 |     7091    0.5 |
 |  147 |     34320    0.4 |     40108    0.4  19.0 |     5977    0.4 |
 |  148 |     34091    0.4 |     40548    0.4  19.2 |     7447    0.5 |
 |  149 |     35703    0.4 |     41651    0.4  18.4 |     6217    0.4 |
 |  150 |     33299    0.4 |     39611    0.4  20.3 |     6928    0.4 |
 |  151 |     33789    0.4 |     40334    0.4  20.4 |     7123    0.5 |
 |  152 |     36001    0.4 |     41909    0.4  18.5 |     6068    0.4 |
 |  153 |     35468    0.4 |     42029    0.4  21.9 |     6270    0.4 |
 |  154 |     36069    0.4 |     42371    0.4  19.9 |     6258    0.4 |
 |  155 |     35182    0.4 |     41116    0.4  18.9 |     6141    0.4 |
 |  156 |     33659    0.4 |     40358    0.4  19.9 |     7788    0.5 |
 |  157 |     32496    0.4 |     39018    0.4  20.2 |     7560    0.5 |
 |  158 |     34330    0.4 |     40347    0.4  19.6 |     6165    0.4 |
 |  159 |     36326    0.4 |     42863    0.4  21.4 |     6280    0.4 |
 |  160 |     35651    0.4 |     41973    0.4  19.5 |     6501    0.4 |
 |  161 |     34531    0.4 |     41023    0.4  21.0 |     6695    0.4 |
 |  162 |     34856    0.4 |     40860    0.4  19.4 |     6150    0.4 |
 |  163 |     34299    0.4 |     40993    0.4  19.9 |     7646    0.5 |
 |  164 |     36046    0.4 |     42032    0.4  18.6 |     6211    0.4 |
 |  165 |     34193    0.4 |     40508    0.4  19.3 |     7085    0.5 |
 |  166 |     35942    0.4 |     41973    0.4  18.7 |     6288    0.4 |
 |  167 |     36108    0.4 |     42344    0.4  19.4 |     6277    0.4 |
 |  168 |     34179    0.4 |     40633    0.4  21.4 |     6527    0.4 |
 |  169 |     34419    0.4 |     40517    0.4  20.0 |     6138    0.4 |
 |  170 |     36313    0.4 |     43234    0.4  21.8 |     6757    0.4 |
 |  171 |     36833    0.4 |     43135    0.4  20.3 |     5950    0.4 |
 |  172 |     32873    0.4 |     39371    0.4  20.1 |     7306    0.5 |
 |  173 |     32588    0.4 |     39144    0.4  20.5 |     7471    0.5 |
 |  174 |     36038    0.4 |     42051    0.4  19.2 |     6078    0.4 |
 |  175 |     33786    0.4 |     40111    0.4  20.7 |     6574    0.4 |
 |  176 |     34025    0.4 |     40141    0.4  19.8 |     6316    0.4 |
 |  177 |     32372    0.4 |     37841    0.4  16.8 |     5977    0.4 |
 |  178 |     34974    0.4 |     40084    0.4  15.1 |     5348    0.3 |
 |  179 |     33890    0.4 |     38596    0.4  12.5 |     5567    0.4 |
 |  180 |     31442    0.4 |     36597    0.4  13.9 |     6302    0.4 |
 |  181 |     34159    0.4 |     39245    0.4  15.3 |     5263    0.3 |
 |  182 |     34095    0.4 |     39811    0.4  17.1 |     5909    0.4 |
 |  183 |     35392    0.4 |     40580    0.4  15.7 |     5221    0.3 |
 |  184 |     32151    0.4 |     37475    0.4  15.7 |     6082    0.4 |
 |  185 |     32830    0.4 |     38218    0.4  15.0 |     6373    0.4 |
 |  186 |     34926    0.4 |     40753    0.4  19.4 |     5757    0.4 |
 |  187 |     34951    0.4 |     40912    0.4  17.9 |     5944    0.4 |
 |  188 |     33893    0.4 |     38816    0.4  15.2 |     5023    0.3 |
 |  189 |     35535    0.4 |     41645    0.4  19.5 |     6217    0.4 |
 |  190 |     32979    0.4 |     39312    0.4  19.4 |     7306    0.5 |
 |  191 |     35269    0.4 |     41360    0.4  19.9 |     5989    0.4 |
 |  192 |     33039    0.4 |     39356    0.4  20.1 |     7030    0.5 |
 |  193 |     35109    0.4 |     41899    0.4  21.3 |     7048    0.5 |
 |  194 |     34354    0.4 |     40488    0.4  20.1 |     6200    0.4 |
 |  195 |     33803    0.4 |     40563    0.4  20.0 |     7868    0.5 |
 |  196 |     35540    0.4 |     41429    0.4  18.6 |     6083    0.4 |
 |  197 |     35204    0.4 |     41276    0.4  19.6 |     6156    0.4 |
 |  198 |     33024    0.4 |     39474    0.4  20.6 |     7108    0.5 |
 |  199 |     35944    0.4 |     42337    0.4  20.8 |     6295    0.4 |
 |  200 |     34227    0.4 |     40566    0.4  21.0 |     6244    0.4 |
 |  201 |     33115    0.4 |     39763    0.4  20.2 |     7662    0.5 |
 |  202 |     36452    0.4 |     42586    0.4  19.4 |     6160    0.4 |
 |  203 |     34644    0.4 |     40771    0.4  20.1 |     6194    0.4 |
 |  204 |     33774    0.4 |     40310    0.4  21.4 |     6783    0.4 |
 |  205 |     34228    0.4 |     40787    0.4  21.2 |     6870    0.4 |
 |  206 |     36022    0.4 |     42426    0.4  19.8 |     6573    0.4 |
 |  207 |     36363    0.4 |     42426    0.4  19.1 |     6085    0.4 |
 |  208 |     33438    0.4 |     40151    0.4  21.1 |     7393    0.5 |
 |  209 |     34763    0.4 |     39291    0.4  13.0 |     4721    0.3 |
 |  210 |     34516    0.4 |     39844    0.4  15.4 |     5398    0.3 |
 |  211 |     33681    0.4 |     39976    0.4  20.2 |     6809    0.4 |
 |  212 |     35836    0.4 |     41831    0.4  18.5 |     6226    0.4 |
 |  213 |     33596    0.4 |     39979    0.4  20.8 |     6784    0.4 |
 |  214 |     33840    0.4 |     39926    0.4  19.8 |     6257    0.4 |
 |  215 |     33296    0.4 |     39826    0.4  20.9 |     7113    0.5 |
 |  216 |     36758    0.4 |     43105    0.4  20.2 |     6131    0.4 |
 |  217 |     33940    0.4 |     40698    0.4  20.2 |     7728    0.5 |
 |  218 |     35799    0.4 |     41868    0.4  18.8 |     6300    0.4 |
 |  219 |     36371    0.4 |     42299    0.4  18.9 |     5907    0.4 |
 |  220 |     34050    0.4 |     40520    0.4  20.6 |     6831    0.4 |
 |  221 |     35527    0.4 |     41543    0.4  19.7 |     5992    0.4 |
 |  222 |     32720    0.4 |     39140    0.4  20.4 |     7271    0.5 |
 |  223 |     34913    0.4 |     40790    0.4  19.8 |     5797    0.4 |
 |  224 |     35013    0.4 |     41667    0.4  20.7 |     7034    0.5 |
 |  225 |     34082    0.4 |     40583    0.4  20.9 |     6790    0.4 |
 |  226 |     35620    0.4 |     41502    0.4  19.2 |     5841    0.4 |
 |  227 |     34329    0.4 |     40694    0.4  19.3 |     7222    0.5 |
 |  228 |     33860    0.4 |     39690    0.4  19.1 |     6097    0.4 |
 |  229 |     36283    0.4 |     42501    0.4  19.8 |     6180    0.4 |
 |  230 |     34223    0.4 |     40917    0.4  20.2 |     7524    0.5 |
 |  231 |     33474    0.4 |     39979    0.4  20.2 |     7248    0.5 |
 |  232 |     34988    0.4 |     41018    0.4  19.3 |     6211    0.4 |
 |  233 |     36227    0.4 |     42425    0.4  19.5 |     6161    0.4 |
 |  234 |     32653    0.4 |     39198    0.4  20.3 |     7570    0.5 |
 |  235 |     35312    0.4 |     41561    0.4  20.7 |     6013    0.4 |
 |  236 |     34557    0.4 |     40473    0.4  19.9 |     5790    0.4 |
 |  237 |     35595    0.4 |     41755    0.4  19.3 |     6359    0.4 |
 |  238 |     33416    0.4 |     39748    0.4  20.5 |     6789    0.4 |
 |  239 |     32198    0.4 |     38683    0.4  20.2 |     7535    0.5 |
 |  240 |     36457    0.4 |     42489    0.4  19.1 |     6087    0.4 |
 |  241 |     34223    0.4 |     40492    0.4  20.6 |     6471    0.4 |
 |  242 |     35570    0.4 |     41734    0.4  19.2 |     6327    0.4 |
 |  243 |     35619    0.4 |     41594    0.4  18.6 |     6234    0.4 |
 |  244 |     34420    0.4 |     40802    0.4  19.2 |     7171    0.5 |
 |  245 |     34146    0.4 |     40455    0.4  20.9 |     6490    0.4 |
 |  246 |     35497    0.4 |     41747    0.4  19.4 |     6489    0.4 |
 |  247 |     32728    0.4 |     39092    0.4  20.1 |     7167    0.5 |
 |  248 |     35943    0.4 |     42123    0.4  19.4 |     6292    0.4 |
 |  249 |     35427    0.4 |     41635    0.4  19.7 |     6348    0.4 |
 |  250 |     34103    0.4 |     40513    0.4  21.2 |     6582    0.4 |
 |  251 |     32979    0.4 |     39300    0.4  20.2 |     6969    0.4 |
 |  252 |     35905    0.4 |     41896    0.4  18.5 |     6252    0.4 |
 |  253 |     34386    0.4 |     40286    0.4  19.6 |     5956    0.4 |
 |  254 |     35296    0.4 |     42050    0.4  20.7 |     7198    0.5 |
 |  255 |     32538    0.4 |     38942    0.4  20.1 |     7317    0.5 |
 |  256 |     36087    0.4 |     42080    0.4  18.7 |     6175    0.4 |
 +------+------------------+------------------------+-----------------+
 | Min  |     31028    0.4 |     36597    0.4  13.2 |     4591    0.3 |
 |(part)|           (   76)|           (  180   179)|          (   80)|
 +------+------------------+------------------------+-----------------+
 | Max  |     36833    0.4 |     43234    0.4  21.8 |     7868    0.5 |
 |(part)|           (  171)|           (  170   170)|          (  195)|
 +------+------------------+------------------------+-----------------+
 | Ave  |     34152    0.4 |     39878    0.4  17.7 |     6051    0.4 |
 +------+------------------+------------------------+-----------------+
 | Sum  |   8742882  100.0 |  10208715  100.0  17.7 |  1549168  100.0 |
 +------+------------------+------------------------+-----------------+

 Partitioning information for domain: TubeDom

        +------------------+------------------------+-----------------+
        |     Elements     |        Vertices        |     Faces       |
 +------+------------------+------------------------+-----------------+
 | Part |   Number     %   |   Number     %   %Ovlp |  Number     %   |
 +------+------------------+------------------------+-----------------+
 | Full |    211299        |    125390              |   151090        |
 +------+------------------+------------------------+-----------------+
 |    1 |      2240    0.5 |      1413    0.5  63.9 |     1064    0.4 |
 |    2 |       414    0.1 |       726    0.2  28.1 |      414    0.2 |
 |    3 |      2778    0.6 |      1594    0.5  69.1 |     1271    0.5 |
 |    4 |       378    0.1 |       720    0.2  30.8 |      438    0.2 |
 |    5 |       406    0.1 |       714    0.2  28.6 |      406    0.2 |
 |    6 |      2791    0.6 |      1598    0.5  67.9 |     1251    0.5 |
 |    7 |      2190    0.5 |      1386    0.5  64.2 |     1077    0.4 |
 |    8 |       432    0.1 |       750    0.3  27.3 |      426    0.2 |
 |    9 |       416    0.1 |       732    0.2  28.7 |      416    0.2 |
 |   10 |      2683    0.6 |      1569    0.5  69.9 |     1263    0.5 |
 |   11 |       428    0.1 |       750    0.3  28.0 |      428    0.2 |
 |   12 |      2468    0.6 |      1497    0.5  64.1 |     1129    0.4 |
 |   13 |       344    0.1 |       672    0.2  29.5 |      424    0.2 |
 |   14 |      2197    0.5 |      1389    0.5  62.2 |     1047    0.4 |
 |   15 |      2256    0.5 |      1415    0.5  63.5 |     1058    0.4 |
 |   16 |       426    0.1 |       744    0.3  27.4 |      426    0.2 |
 |   17 |      2295    0.5 |      1403    0.5  66.2 |     1128    0.4 |
 |   18 |       410    0.1 |       714    0.2  26.9 |      410    0.2 |
 |   19 |      2596    0.6 |      1543    0.5  66.0 |     1175    0.4 |
 |   20 |       426    0.1 |       753    0.3  29.5 |      426    0.2 |
 |   21 |       348    0.1 |       705    0.2  34.0 |      436    0.2 |
 |   22 |      2241    0.5 |      1430    0.5  62.0 |     1058    0.4 |
 |   23 |      2509    0.6 |      1531    0.5  64.9 |     1163    0.4 |
 |   24 |       434    0.1 |       768    0.3  29.7 |      434    0.2 |
 |   25 |       398    0.1 |       741    0.3  32.0 |      438    0.2 |
 |   26 |      2457    0.6 |      1476    0.5  66.7 |     1155    0.4 |
 |   27 |      2518    0.6 |      1528    0.5  64.9 |     1174    0.4 |
 |   28 |       422    0.1 |       741    0.3  28.3 |      422    0.2 |
 |   29 |      2430    0.6 |      1465    0.5  66.2 |     1157    0.4 |
 |   30 |       382    0.1 |       714    0.2  29.8 |      434    0.2 |
 |   31 |       416    0.1 |       729    0.2  28.0 |      416    0.2 |
 |   32 |      2478    0.6 |      1479    0.5  65.6 |     1141    0.4 |
 |   33 |       382    0.1 |       720    0.2  31.2 |      434    0.2 |
 |   34 |      2549    0.6 |      1535    0.5  66.2 |     1198    0.5 |
 |   35 |       426    0.1 |       747    0.3  28.1 |      426    0.2 |
 |   36 |      2238    0.5 |      1409    0.5  62.5 |     1065    0.4 |
 |   37 |       426    0.1 |       747    0.3  28.1 |      426    0.2 |
 |   38 |      2402    0.5 |      1467    0.5  65.8 |     1155    0.4 |
 |   39 |       428    0.1 |       756    0.3  29.4 |      428    0.2 |
 |   40 |      2194    0.5 |      1365    0.5  62.0 |     1039    0.4 |
 |   41 |       355    0.1 |       692    0.2  32.7 |      425    0.2 |
 |   42 |      2650    0.6 |      1578    0.5  67.9 |     1248    0.5 |
 |   43 |       430    0.1 |       756    0.3  28.6 |      430    0.2 |
 |   44 |      2425    0.5 |      1507    0.5  64.8 |     1137    0.4 |
 |   45 |      2474    0.6 |      1486    0.5  64.5 |     1155    0.4 |
 |   46 |       428    0.1 |       750    0.3  28.0 |      428    0.2 |
 |   47 |       695    0.2 |       853    0.3  43.0 |      548    0.2 |
 |   48 |      2132    0.5 |      1373    0.5  64.6 |     1059    0.4 |
 |   49 |      2564    0.6 |      1545    0.5  65.0 |     1201    0.5 |
 |   50 |       412    0.1 |       720    0.2  27.5 |      412    0.2 |
 |   51 |      2274    0.5 |      1419    0.5  65.4 |     1101    0.4 |
 |   52 |       381    0.1 |       725    0.2  31.6 |      439    0.2 |
 |   53 |      2626    0.6 |      1555    0.5  65.5 |     1206    0.5 |
 |   54 |       362    0.1 |       696    0.2  29.7 |      434    0.2 |
 |   55 |       428    0.1 |       759    0.3  30.0 |      428    0.2 |
 |   56 |      2508    0.6 |      1509    0.5  64.4 |     1174    0.4 |
 |   57 |       406    0.1 |       714    0.2  28.6 |      406    0.2 |
 |   58 |      2613    0.6 |      1552    0.5  66.8 |     1184    0.4 |
 |   59 |       392    0.1 |       732    0.2  32.8 |      428    0.2 |
 |   60 |      2267    0.5 |      1429    0.5  66.0 |     1088    0.4 |
 |   61 |       404    0.1 |       708    0.2  28.0 |      404    0.2 |
 |   62 |      2496    0.6 |      1528    0.5  65.1 |     1162    0.4 |
 |   63 |       390    0.1 |       717    0.2  30.1 |      430    0.2 |
 |   64 |      2447    0.6 |      1519    0.5  67.0 |     1182    0.4 |
 |   65 |      1807    0.4 |      1260    0.4  58.5 |      894    0.3 |
 |   66 |      2140    0.5 |      1364    0.5  62.7 |     1009    0.4 |
 |   67 |       406    0.1 |       708    0.2  27.1 |      406    0.2 |
 |   68 |      1955    0.4 |      1290    0.4  64.2 |      987    0.4 |
 |   69 |       388    0.1 |       717    0.2  31.0 |      428    0.2 |
 |   70 |      2545    0.6 |      1508    0.5  68.4 |     1206    0.5 |
 |   71 |       408    0.1 |       717    0.2  28.5 |      408    0.2 |
 |   72 |      2450    0.6 |      1487    0.5  64.9 |     1164    0.4 |
 |   73 |      2411    0.5 |      1483    0.5  66.8 |     1150    0.4 |
 |   74 |       380    0.1 |       723    0.2  32.4 |      436    0.2 |
 |   75 |      2065    0.5 |      1350    0.5  60.2 |     1014    0.4 |
 |   76 |       418    0.1 |       738    0.3  29.3 |      418    0.2 |
 |   77 |       428    0.1 |       759    0.3  30.0 |      428    0.2 |
 |   78 |      2002    0.5 |      1353    0.5  63.0 |     1019    0.4 |
 |   79 |       388    0.1 |       678    0.2  21.2 |      418    0.2 |
 |   80 |      2365    0.5 |      1417    0.5  63.8 |     1154    0.4 |
 |   81 |       428    0.1 |       750    0.3  28.0 |      428    0.2 |
 |   82 |      2509    0.6 |      1485    0.5  65.7 |     1137    0.4 |
 |   83 |      2533    0.6 |      1539    0.5  67.4 |     1196    0.5 |
 |   84 |       380    0.1 |       723    0.2  30.7 |      440    0.2 |
 |   85 |       364    0.1 |       693    0.2  31.2 |      424    0.2 |
 |   86 |      2525    0.6 |      1502    0.5  65.4 |     1160    0.4 |
 |   87 |       430    0.1 |       765    0.3  30.6 |      430    0.2 |
 |   88 |      2670    0.6 |      1554    0.5  66.6 |     1220    0.5 |
 |   89 |       344    0.1 |       676    0.2  31.8 |      422    0.2 |
 |   90 |      2446    0.6 |      1472    0.5  65.3 |     1131    0.4 |
 |   91 |       424    0.1 |       741    0.3  27.8 |      422    0.2 |
 |   92 |      2371    0.5 |      1482    0.5  64.4 |     1110    0.4 |
 |   93 |       374    0.1 |       729    0.2  32.5 |      446    0.2 |
 |   94 |      2633    0.6 |      1572    0.5  67.6 |     1244    0.5 |
 |   95 |       428    0.1 |       750    0.3  28.0 |      428    0.2 |
 |   96 |      3219    0.7 |      1785    0.6  70.9 |     1458    0.6 |
 |   97 |       390    0.1 |       741    0.3  34.0 |      434    0.2 |
 |   98 |      2256    0.5 |      1424    0.5  66.6 |     1106    0.4 |
 |   99 |       418    0.1 |       729    0.2  27.2 |      418    0.2 |
 |  100 |      2446    0.6 |      1495    0.5  63.9 |     1125    0.4 |
 |  101 |      2487    0.6 |      1473    0.5  67.7 |     1190    0.4 |
 |  102 |       408    0.1 |       714    0.2  27.6 |      408    0.2 |
 |  103 |       434    0.1 |       765    0.3  29.2 |      433    0.2 |
 |  104 |      2752    0.6 |      1607    0.5  66.2 |     1239    0.5 |
 |  105 |       402    0.1 |       702    0.2  27.4 |      402    0.2 |
 |  106 |      2182    0.5 |      1423    0.5  62.1 |     1046    0.4 |
 |  107 |      2530    0.6 |      1517    0.5  67.8 |     1186    0.4 |
 |  108 |       392    0.1 |       726    0.2  31.7 |      429    0.2 |
 |  109 |       430    0.1 |       759    0.3  29.2 |      430    0.2 |
 |  110 |      2327    0.5 |      1442    0.5  62.6 |     1097    0.4 |
 |  111 |       381    0.1 |       728    0.2  31.0 |      445    0.2 |
 |  112 |      2502    0.6 |      1550    0.5  66.4 |     1208    0.5 |
 |  113 |       422    0.1 |       753    0.3  31.1 |      422    0.2 |
 |  114 |      2601    0.6 |      1527    0.5  66.2 |     1174    0.4 |
 |  115 |       962    0.2 |       964    0.3  45.2 |      637    0.2 |
 |  116 |      2374    0.5 |      1473    0.5  66.4 |     1143    0.4 |
 |  117 |       380    0.1 |       726    0.2  30.9 |      443    0.2 |
 |  118 |      2751    0.6 |      1570    0.5  68.7 |     1249    0.5 |
 |  119 |       424    0.1 |       750    0.3  29.6 |      424    0.2 |
 |  120 |      2089    0.5 |      1353    0.5  60.5 |     1022    0.4 |
 |  121 |       412    0.1 |       729    0.2  29.9 |      409    0.2 |
 |  122 |      2022    0.5 |      1351    0.5  62.0 |      989    0.4 |
 |  123 |       354    0.1 |       702    0.2  31.2 |      442    0.2 |
 |  124 |      2228    0.5 |      1396    0.5  62.8 |     1048    0.4 |
 |  125 |       424    0.1 |       738    0.3  26.8 |      424    0.2 |
 |  126 |      2582    0.6 |      1522    0.5  66.6 |     1184    0.4 |
 |  127 |      2385    0.5 |      1458    0.5  66.0 |     1132    0.4 |
 |  128 |       370    0.1 |       696    0.2  30.6 |      422    0.2 |
 |  129 |      2089    0.5 |      1771    0.6  74.4 |     1555    0.6 |
 |  130 |      1515    0.3 |       559    0.2  20.2 |      963    0.4 |
 |  131 |      1902    0.4 |      1299    0.4  63.4 |     1334    0.5 |
 |  132 |      1918    0.4 |      1455    0.5  68.6 |     1387    0.5 |
 |  133 |      1994    0.5 |      1691    0.6  73.6 |     1513    0.6 |
 |  134 |      1867    0.4 |      1296    0.4  63.8 |     1342    0.5 |
 |  135 |      2156    0.5 |      1840    0.6  74.3 |     1611    0.6 |
 |  136 |      1516    0.3 |       557    0.2  17.1 |      983    0.4 |
 |  137 |      2246    0.5 |      2053    0.7  77.4 |     1711    0.6 |
 |  138 |      1611    0.4 |       583    0.2  19.0 |      991    0.4 |
 |  139 |      2175    0.5 |      1826    0.6  74.2 |     1580    0.6 |
 |  140 |      1610    0.4 |       579    0.2  18.3 |      998    0.4 |
 |  141 |      1522    0.3 |       559    0.2  18.4 |      978    0.4 |
 |  142 |      2221    0.5 |      1997    0.7  76.4 |     1688    0.6 |
 |  143 |      2287    0.5 |      2041    0.7  76.7 |     1699    0.6 |
 |  144 |      1518    0.3 |       553    0.2  17.7 |      970    0.4 |
 |  145 |      2126    0.5 |      1853    0.6  74.6 |     1614    0.6 |
 |  146 |      1580    0.4 |       572    0.2  16.4 |     1012    0.4 |
 |  147 |      2073    0.5 |      1866    0.6  76.2 |     1591    0.6 |
 |  148 |      1485    0.3 |       547    0.2  17.7 |      970    0.4 |
 |  149 |      2167    0.5 |      1959    0.7  76.9 |     1640    0.6 |
 |  150 |      1545    0.3 |       569    0.2  17.8 |     1010    0.4 |
 |  151 |      1482    0.3 |       542    0.2  17.7 |      952    0.4 |
 |  152 |      2103    0.5 |      1871    0.6  75.8 |     1606    0.6 |
 |  153 |      1552    0.4 |       564    0.2  17.4 |      986    0.4 |
 |  154 |      2186    0.5 |      2047    0.7  78.1 |     1688    0.6 |
 |  155 |      2090    0.5 |      1782    0.6  74.2 |     1564    0.6 |
 |  156 |      1564    0.4 |       562    0.2  16.4 |      993    0.4 |
 |  157 |      1604    0.4 |       577    0.2  17.0 |     1008    0.4 |
 |  158 |      2128    0.5 |      1853    0.6  75.2 |     1599    0.6 |
 |  159 |      1598    0.4 |       579    0.2  18.0 |      997    0.4 |
 |  160 |      2265    0.5 |      2175    0.7  79.0 |     1760    0.7 |
 |  161 |      1496    0.3 |       559    0.2  17.5 |      994    0.4 |
 |  162 |      2137    0.5 |      1912    0.7  76.4 |     1629    0.6 |
 |  163 |      1576    0.4 |       568    0.2  16.2 |     1007    0.4 |
 |  164 |      2040    0.5 |      1778    0.6  74.5 |     1572    0.6 |
 |  165 |      1525    0.3 |       551    0.2  17.8 |      959    0.4 |
 |  166 |      2230    0.5 |      1968    0.7  76.0 |     1670    0.6 |
 |  167 |      2144    0.5 |      1980    0.7  77.3 |     1652    0.6 |
 |  168 |      1515    0.3 |       555    0.2  17.3 |      969    0.4 |
 |  169 |      2096    0.5 |      1910    0.7  76.7 |     1621    0.6 |
 |  170 |      1706    0.4 |       986    0.3  53.7 |     1156    0.4 |
 |  171 |      2048    0.5 |      1767    0.6  74.6 |     1547    0.6 |
 |  172 |      1545    0.3 |       554    0.2  17.9 |      951    0.4 |
 |  173 |      1540    0.3 |       568    0.2  16.9 |     1009    0.4 |
 |  174 |      2194    0.5 |      1905    0.6  75.1 |     1642    0.6 |
 |  175 |      1506    0.3 |       544    0.2  17.6 |      943    0.4 |
 |  176 |      2287    0.5 |      2105    0.7  77.7 |     1731    0.7 |
 |  177 |       416    0.1 |       723    0.2  26.6 |      416    0.2 |
 |  178 |      1059    0.2 |      2132    0.7  75.2 |     1093    0.4 |
 |  179 |      1085    0.2 |      2244    0.8  78.4 |     1210    0.5 |
 |  180 |       406    0.1 |       750    0.3  33.6 |      434    0.2 |
 |  181 |      1062    0.2 |      2145    0.7  76.1 |     1100    0.4 |
 |  182 |       380    0.1 |       723    0.2  32.4 |      432    0.2 |
 |  183 |      1042    0.2 |      2096    0.7  75.1 |     1074    0.4 |
 |  184 |       410    0.1 |       750    0.3  30.1 |      445    0.2 |
 |  185 |       535    0.1 |       658    0.2  30.4 |      536    0.2 |
 |  186 |      2039    0.5 |      1680    0.6  73.3 |     1479    0.6 |
 |  187 |       792    0.2 |      1597    0.5  66.8 |      814    0.3 |
 |  188 |       928    0.2 |      1930    0.7  74.1 |     1024    0.4 |
 |  189 |      2100    0.5 |      1802    0.6  74.1 |     1579    0.6 |
 |  190 |      1501    0.3 |       551    0.2  18.0 |      963    0.4 |
 |  191 |      2058    0.5 |      1793    0.6  75.1 |     1557    0.6 |
 |  192 |      1545    0.3 |       548    0.2  17.2 |      946    0.4 |
 |  193 |      1579    0.4 |       569    0.2  17.6 |      987    0.4 |
 |  194 |      3836    0.9 |      1397    0.5  65.6 |     1794    0.7 |
 |  195 |      1594    0.4 |       571    0.2  16.8 |     1000    0.4 |
 |  196 |      3415    0.8 |      1249    0.4  63.8 |     1603    0.6 |
 |  197 |      3554    0.8 |      1314    0.4  64.4 |     1721    0.6 |
 |  198 |      1521    0.3 |       551    0.2  17.1 |      963    0.4 |
 |  199 |      1534    0.3 |       558    0.2  17.4 |      973    0.4 |
 |  200 |      3641    0.8 |      1341    0.5  66.7 |     1723    0.7 |
 |  201 |      1531    0.3 |       560    0.2  19.1 |      977    0.4 |
 |  202 |      3311    0.7 |      1221    0.4  61.1 |     1630    0.6 |
 |  203 |      3668    0.8 |      1341    0.5  64.5 |     1723    0.7 |
 |  204 |      1478    0.3 |       551    0.2  19.6 |      959    0.4 |
 |  205 |      1599    0.4 |       570    0.2  16.1 |      992    0.4 |
 |  206 |      3916    0.9 |      1429    0.5  66.8 |     1841    0.7 |
 |  207 |      3227    0.7 |      1194    0.4  61.2 |     1591    0.6 |
 |  208 |      1640    0.4 |       579    0.2  17.1 |      992    0.4 |
 |  209 |      4000    0.9 |      1295    0.4  58.9 |     1420    0.5 |
 |  210 |      3170    0.7 |      1028    0.4  49.3 |     1145    0.4 |
 |  211 |      1508    0.3 |       546    0.2  17.0 |      956    0.4 |
 |  212 |      3666    0.8 |      1353    0.5  66.8 |     1715    0.6 |
 |  213 |      1563    0.4 |       570    0.2  17.5 |      999    0.4 |
 |  214 |      3733    0.8 |      1377    0.5  66.7 |     1759    0.7 |
 |  215 |      1542    0.3 |       547    0.2  17.2 |      951    0.4 |
 |  216 |      3148    0.7 |      1171    0.4  61.6 |     1554    0.6 |
 |  217 |      1525    0.3 |       560    0.2  17.1 |      985    0.4 |
 |  218 |      3568    0.8 |      1323    0.5  65.9 |     1719    0.6 |
 |  219 |      3598    0.8 |      1318    0.4  65.5 |     1681    0.6 |
 |  220 |      1514    0.3 |       547    0.2  16.5 |      958    0.4 |
 |  221 |      3210    0.7 |      1184    0.4  60.6 |     1578    0.6 |
 |  222 |      1602    0.4 |       575    0.2  17.0 |      999    0.4 |
 |  223 |      2763    0.6 |      1022    0.3  53.9 |     1425    0.5 |
 |  224 |      2799    0.6 |      1038    0.4  54.9 |     1457    0.6 |
 |  225 |      1829    0.4 |      1203    0.4  62.2 |     1251    0.5 |
 |  226 |      1988    0.5 |      1622    0.6  72.2 |     1476    0.6 |
 |  227 |      1588    0.4 |       573    0.2  17.3 |     1008    0.4 |
 |  228 |      2150    0.5 |      1945    0.7  76.8 |     1629    0.6 |
 |  229 |      2147    0.5 |      1796    0.6  73.8 |     1576    0.6 |
 |  230 |      1613    0.4 |       580    0.2  18.3 |     1005    0.4 |
 |  231 |      1621    0.4 |       566    0.2  16.3 |      969    0.4 |
 |  232 |      2129    0.5 |      1882    0.6  76.0 |     1592    0.6 |
 |  233 |      2085    0.5 |      1728    0.6  73.6 |     1521    0.6 |
 |  234 |      1585    0.4 |       570    0.2  17.5 |      990    0.4 |
 |  235 |      1933    0.4 |      1409    0.5  67.3 |     1356    0.5 |
 |  236 |      2109    0.5 |      1762    0.6  74.2 |     1528    0.6 |
 |  237 |      2220    0.5 |      2017    0.7  76.9 |     1695    0.6 |
 |  238 |      1566    0.4 |       558    0.2  18.5 |      959    0.4 |
 |  239 |      1619    0.4 |       576    0.2  17.9 |      987    0.4 |
 |  240 |      2187    0.5 |      1835    0.6  74.2 |     1595    0.6 |
 |  241 |      1529    0.3 |       553    0.2  18.4 |      947    0.4 |
 |  242 |      3750    0.8 |      1375    0.5  67.4 |     1761    0.7 |
 |  243 |      3601    0.8 |      1318    0.4  65.6 |     1684    0.6 |
 |  244 |      1534    0.3 |       560    0.2  18.8 |      966    0.4 |
 |  245 |      1532    0.3 |       566    0.2  19.1 |      989    0.4 |
 |  246 |      3807    0.9 |      1396    0.5  66.0 |     1805    0.7 |
 |  247 |      1588    0.4 |       566    0.2  17.1 |      967    0.4 |
 |  248 |      3436    0.8 |      1268    0.4  62.5 |     1655    0.6 |
 |  249 |      2234    0.5 |      1976    0.7  75.8 |     1694    0.6 |
 |  250 |      1605    0.4 |       581    0.2  18.2 |      996    0.4 |
 |  251 |      1537    0.3 |       548    0.2  17.3 |      943    0.4 |
 |  252 |      2148    0.5 |      1929    0.7  76.4 |     1631    0.6 |
 |  253 |      3563    0.8 |      1309    0.4  65.3 |     1674    0.6 |
 |  254 |      1556    0.4 |       564    0.2  16.5 |      993    0.4 |
 |  255 |      1579    0.4 |       567    0.2  16.4 |      990    0.4 |
 |  256 |      2412    0.5 |      1796    0.6  74.7 |     1672    0.6 |
 +------+------------------+------------------------+-----------------+
 | Min  |       344    0.1 |       542    0.2  16.6 |      402    0.2 |
 |(part)|           (   13)|           (  151   220)|          (  105)|
 +------+------------------+------------------------+-----------------+
 | Max  |      4000    0.9 |      2244    0.8  78.4 |     1841    0.7 |
 |(part)|           (  209)|           (  179   179)|          (  206)|
 +------+------------------+------------------------+-----------------+
 | Ave  |      1726    0.4 |      1145    0.4  57.2 |     1035    0.4 |
 +------+------------------+------------------------+-----------------+
 | Sum  |    441733  100.0 |    293082  100.0  57.2 |   264901  100.0 |
 +------+------------------+------------------------+-----------------+

 +--------------------------------------------------------------------+
 |                 Partitioning CPU-Time Requirements                 |
 +--------------------------------------------------------------------+
  
 - Preparations                                       8.277E+00 seconds
 - Low-level mesh partitioning                        9.769E+00 seconds
 - Gather zone interface information                  5.590E+01 seconds
 - Global partitioning information                    7.030E-01 seconds
 - Element and face partitioning information          9.220E-01 seconds
 - Vertex partitioning information                    4.359E+00 seconds
 - Partitioning information compression               7.700E-02 seconds
 - Summed CPU-time for mesh partitioning              8.163E+01 seconds

 +--------------------------------------------------------------------+
 |                   Job Information at End of Run                    |
 +--------------------------------------------------------------------+

 +---------------------------+------+----------+----------+-----------+
 | Host                      | Mesh |     Job Finished    |    CPU    |
 |                           | Part | DD/MM/YY | hh:mm:ss |  seconds  |
 +---------------------------+------+----------+----------+-----------+
 | RD000D3A20F82B            |    1 | 31/05/15 | 21:58:10 | 1.435E+02 |
 +---------------------------+------+----------+----------+-----------+

 Total wall clock time: 1.429E+02 seconds
             or: (          0:         0:         2:    22.923 )
                 (       Days:     Hours:   Minutes:   Seconds )


 +--------------------------------------------------------------------+
 |                                                                    |
 |                               Solver                               |
 |                                                                    |
 +--------------------------------------------------------------------+




 +--------------------------------------------------------------------+
 |                                                                    |
 |                    ANSYS(R) CFX(R) Solver 15.0.7                   |
 |                                                                    |
 | Version 2014.04.10-23.00-131675     Thu Apr 10 23:23:23 GMTDT 2014 |
 |                                                                    |
 |                        Executable Attributes                       |
 |                                                                    |
 |          single-64bit-int32-supfort-optimised-noprof-lcomp         |
 |                                                                    |
 | (C) 2014 ANSYS, Inc.                                               |
 |                                                                    |
 | All rights reserved. Unauthorized use, distribution or duplication |
 | is prohibited. This product is subject to U.S. laws governing      |
 | export and re-export. For full Legal Notice, see documentation.    |
 +--------------------------------------------------------------------+




 +--------------------------------------------------------------------+
 |                  Job Information at Start of Run                   |
 +--------------------------------------------------------------------+

 Run mode:       parallel run (MS MPI)

 +------------------------------+------+--------+----------+----------+
 | Host                         | Mesh |  PID   |     Job Started     |
 |                              | Part |        | DD/MM/YY | hh:mm:ss |
 +------------------------------+------+--------+----------+----------+
 | RD000D3A20F82B               |    1 |   3808 | 31/05/15 | 21:59:59 |
 |                              |    2 |   3004 | 31/05/15 | 21:59:59 |
 |                              |    3 |   3812 | 31/05/15 | 21:59:59 |
 |                              |    4 |   1280 | 31/05/15 | 21:59:59 |
 |                              |    5 |   4020 | 31/05/15 | 21:59:59 |
 |                              |    6 |   3660 | 31/05/15 | 21:59:59 |
 |                              |    7 |    964 | 31/05/15 | 21:59:59 |
 |                              |    8 |   1220 | 31/05/15 | 21:59:59 |
 +------------------------------+------+--------+----------+----------+
 | RD000D3A20F88B               |    9 |   2144 | 31/05/15 | 21:59:59 |
 |                              |   10 |   3636 | 31/05/15 | 21:59:59 |
 |                              |   11 |   2912 | 31/05/15 | 21:59:59 |
 |                              |   12 |   1936 | 31/05/15 | 21:59:59 |
 |                              |   13 |   2276 | 31/05/15 | 21:59:59 |
 |                              |   14 |   2236 | 31/05/15 | 21:59:59 |
 |                              |   15 |    800 | 31/05/15 | 21:59:59 |
 |                              |   16 |   3852 | 31/05/15 | 21:59:59 |
 +------------------------------+------+--------+----------+----------+
 | RD000D3A20FAEA               |   17 |   3136 | 31/05/15 | 22:00:00 |
 |                              |   18 |   1004 | 31/05/15 | 22:00:00 |
 |                              |   19 |    964 | 31/05/15 | 22:00:00 |
 |                              |   20 |    980 | 31/05/15 | 22:00:00 |
 |                              |   21 |   3484 | 31/05/15 | 22:00:00 |
 |                              |   22 |    952 | 31/05/15 | 22:00:00 |
 |                              |   23 |   1804 | 31/05/15 | 22:00:00 |
 |                              |   24 |   3088 | 31/05/15 | 22:00:00 |
 +------------------------------+------+--------+----------+----------+
 | RD000D3A20F329               |   25 |   1056 | 31/05/15 | 22:00:00 |
 |                              |   26 |    984 | 31/05/15 | 22:00:00 |
 |                              |   27 |   1668 | 31/05/15 | 22:00:00 |
 |                              |   28 |    964 | 31/05/15 | 22:00:00 |
 |                              |   29 |    956 | 31/05/15 | 22:00:00 |
 |                              |   30 |   1084 | 31/05/15 | 22:00:00 |
 |                              |   31 |   1908 | 31/05/15 | 22:00:00 |
 |                              |   32 |   2796 | 31/05/15 | 22:00:00 |
 +------------------------------+------+--------+----------+----------+
 | RD000D3A20F2D8               |   33 |   1004 | 31/05/15 | 21:59:59 |
 |                              |   34 |   2852 | 31/05/15 | 21:59:59 |
 |                              |   35 |    160 | 31/05/15 | 21:59:59 |
 |                              |   36 |    752 | 31/05/15 | 21:59:59 |
 |                              |   37 |    992 | 31/05/15 | 21:59:59 |
 |                              |   38 |   2944 | 31/05/15 | 21:59:59 |
 |                              |   39 |    876 | 31/05/15 | 21:59:59 |
 |                              |   40 |    976 | 31/05/15 | 21:59:59 |
 +------------------------------+------+--------+----------+----------+
 | RD000D3A20F09C               |   41 |    976 | 31/05/15 | 22:00:00 |
 |                              |   42 |   1996 | 31/05/15 | 22:00:00 |
 |                              |   43 |   2356 | 31/05/15 | 22:00:00 |
 |                              |   44 |   3464 | 31/05/15 | 22:00:00 |
 |                              |   45 |   2668 | 31/05/15 | 22:00:00 |
 |                              |   46 |   2892 | 31/05/15 | 22:00:00 |
 |                              |   47 |    956 | 31/05/15 | 22:00:00 |
 |                              |   48 |   2300 | 31/05/15 | 22:00:00 |
 +------------------------------+------+--------+----------+----------+
 | RD000D3A20FD1D               |   49 |   2620 | 31/05/15 | 22:00:00 |
 |                              |   50 |   3716 | 31/05/15 | 22:00:00 |
 |                              |   51 |   4028 | 31/05/15 | 22:00:00 |
 |                              |   52 |   1472 | 31/05/15 | 22:00:00 |
 |                              |   53 |   3312 | 31/05/15 | 22:00:00 |
 |                              |   54 |   1104 | 31/05/15 | 22:00:00 |
 |                              |   55 |   1004 | 31/05/15 | 22:00:00 |
 |                              |   56 |   2124 | 31/05/15 | 22:00:00 |
 +------------------------------+------+--------+----------+----------+
 | RD000D3A20F992               |   57 |   3712 | 31/05/15 | 22:00:00 |
 |                              |   58 |   2376 | 31/05/15 | 22:00:00 |
 |                              |   59 |    956 | 31/05/15 | 22:00:00 |
 |                              |   60 |   3840 | 31/05/15 | 22:00:00 |
 |                              |   61 |    960 | 31/05/15 | 22:00:00 |
 |                              |   62 |   3804 | 31/05/15 | 22:00:00 |
 |                              |   63 |   1848 | 31/05/15 | 22:00:00 |
 |                              |   64 |    980 | 31/05/15 | 22:00:00 |
 +------------------------------+------+--------+----------+----------+
 | RD000D3A20FF4D               |   65 |   1008 | 31/05/15 | 22:00:00 |
 |                              |   66 |   2572 | 31/05/15 | 22:00:00 |
 |                              |   67 |    972 | 31/05/15 | 22:00:00 |
 |                              |   68 |   1336 | 31/05/15 | 22:00:00 |
 |                              |   69 |   2924 | 31/05/15 | 22:00:00 |
 |                              |   70 |   1984 | 31/05/15 | 22:00:00 |
 |                              |   71 |   2360 | 31/05/15 | 22:00:00 |
 |                              |   72 |    980 | 31/05/15 | 22:00:00 |
 +------------------------------+------+--------+----------+----------+
 | RD000D3A20FDD5               |   73 |   3396 | 31/05/15 | 22:00:00 |
 |                              |   74 |   4068 | 31/05/15 | 22:00:00 |
 |                              |   75 |   1632 | 31/05/15 | 22:00:00 |
 |                              |   76 |   3772 | 31/05/15 | 22:00:00 |
 |                              |   77 |   2936 | 31/05/15 | 22:00:00 |
 |                              |   78 |   2692 | 31/05/15 | 22:00:00 |
 |                              |   79 |   2396 | 31/05/15 | 22:00:00 |
 |                              |   80 |   4000 | 31/05/15 | 22:00:00 |
 +------------------------------+------+--------+----------+----------+
 | RD000D3A20FAC8               |   81 |   2396 | 31/05/15 | 22:00:00 |
 |                              |   82 |   2832 | 31/05/15 | 22:00:00 |
 |                              |   83 |   2688 | 31/05/15 | 22:00:00 |
 |                              |   84 |   3708 | 31/05/15 | 22:00:00 |
 |                              |   85 |   2328 | 31/05/15 | 22:00:00 |
 |                              |   86 |   1872 | 31/05/15 | 22:00:00 |
 |                              |   87 |   1236 | 31/05/15 | 22:00:00 |
 |                              |   88 |   3992 | 31/05/15 | 22:00:00 |
 +------------------------------+------+--------+----------+----------+
 | RD000D3A20FD02               |   89 |   4092 | 31/05/15 | 22:00:00 |
 |                              |   90 |   3844 | 31/05/15 | 22:00:00 |
 |                              |   91 |   2424 | 31/05/15 | 22:00:00 |
 |                              |   92 |   1096 | 31/05/15 | 22:00:00 |
 |                              |   93 |   1920 | 31/05/15 | 22:00:00 |
 |                              |   94 |   1528 | 31/05/15 | 22:00:00 |
 |                              |   95 |   1168 | 31/05/15 | 22:00:00 |
 |                              |   96 |   1164 | 31/05/15 | 22:00:00 |
 +------------------------------+------+--------+----------+----------+
 | RD000D3A20F56D               |   97 |   2668 | 31/05/15 | 22:00:00 |
 |                              |   98 |   3644 | 31/05/15 | 22:00:00 |
 |                              |   99 |   3544 | 31/05/15 | 22:00:00 |
 |                              |  100 |   1160 | 31/05/15 | 22:00:00 |
 |                              |  101 |    980 | 31/05/15 | 22:00:00 |
 |                              |  102 |    976 | 31/05/15 | 22:00:00 |
 |                              |  103 |   1004 | 31/05/15 | 22:00:00 |
 |                              |  104 |    940 | 31/05/15 | 22:00:00 |
 +------------------------------+------+--------+----------+----------+
 | RD000D3A20F955               |  105 |   2112 | 31/05/15 | 22:00:00 |
 |                              |  106 |   2092 | 31/05/15 | 22:00:00 |
 |                              |  107 |   1260 | 31/05/15 | 22:00:00 |
 |                              |  108 |   3368 | 31/05/15 | 22:00:00 |
 |                              |  109 |   2560 | 31/05/15 | 22:00:00 |
 |                              |  110 |   1744 | 31/05/15 | 22:00:00 |
 |                              |  111 |   2432 | 31/05/15 | 22:00:00 |
 |                              |  112 |   3552 | 31/05/15 | 22:00:00 |
 +------------------------------+------+--------+----------+----------+
 | RD000D3A20F737               |  113 |   3020 | 31/05/15 | 22:00:00 |
 |                              |  114 |   1916 | 31/05/15 | 22:00:00 |
 |                              |  115 |   2024 | 31/05/15 | 22:00:00 |
 |                              |  116 |    448 | 31/05/15 | 22:00:00 |
 |                              |  117 |   3688 | 31/05/15 | 22:00:00 |
 |                              |  118 |   3052 | 31/05/15 | 22:00:00 |
 |                              |  119 |   2172 | 31/05/15 | 22:00:00 |
 |                              |  120 |   3684 | 31/05/15 | 22:00:00 |
 +------------------------------+------+--------+----------+----------+
 | RD000D3A20FF26               |  121 |   2440 | 31/05/15 | 22:00:00 |
 |                              |  122 |   3692 | 31/05/15 | 22:00:00 |
 |                              |  123 |   2524 | 31/05/15 | 22:00:00 |
 |                              |  124 |   3080 | 31/05/15 | 22:00:00 |
 |                              |  125 |   3532 | 31/05/15 | 22:00:00 |
 |                              |  126 |   1432 | 31/05/15 | 22:00:00 |
 |                              |  127 |   3272 | 31/05/15 | 22:00:00 |
 |                              |  128 |   1540 | 31/05/15 | 22:00:00 |
 +------------------------------+------+--------+----------+----------+
 | RD000D3A20FF33               |  129 |   3744 | 31/05/15 | 22:00:00 |
 |                              |  130 |   2776 | 31/05/15 | 22:00:00 |
 |                              |  131 |   3760 | 31/05/15 | 22:00:00 |
 |                              |  132 |   3732 | 31/05/15 | 22:00:00 |
 |                              |  133 |    476 | 31/05/15 | 22:00:00 |
 |                              |  134 |   3684 | 31/05/15 | 22:00:00 |
 |                              |  135 |   3448 | 31/05/15 | 22:00:00 |
 |                              |  136 |   3688 | 31/05/15 | 22:00:00 |
[...]
 |                           |   20 | 31/05/15 | 22:18:27 | 1.110E+03 |
 |                           |   21 | 31/05/15 | 22:18:27 | 1.110E+03 |
 |                           |   22 | 31/05/15 | 22:18:27 | 1.110E+03 |
 |                           |   23 | 31/05/15 | 22:18:27 | 1.110E+03 |
 |                           |   24 | 31/05/15 | 22:18:27 | 1.110E+03 |
 +---------------------------+------+----------+----------+-----------+
 | RD000D3A20F329            |   25 | 31/05/15 | 22:18:27 | 1.129E+03 |
 |                           |   26 | 31/05/15 | 22:18:27 | 1.129E+03 |
 |                           |   27 | 31/05/15 | 22:18:27 | 1.129E+03 |
 |                           |   28 | 31/05/15 | 22:18:27 | 1.129E+03 |
 |                           |   29 | 31/05/15 | 22:18:27 | 1.129E+03 |
 |                           |   30 | 31/05/15 | 22:18:27 | 1.129E+03 |
 |                           |   31 | 31/05/15 | 22:18:27 | 1.129E+03 |
 |                           |   32 | 31/05/15 | 22:18:27 | 1.129E+03 |
 +---------------------------+------+----------+----------+-----------+
 | RD000D3A20F2D8            |   33 | 31/05/15 | 22:18:27 | 1.110E+03 |
 |                           |   34 | 31/05/15 | 22:18:27 | 1.110E+03 |
 |                           |   35 | 31/05/15 | 22:18:27 | 1.110E+03 |
 |                           |   36 | 31/05/15 | 22:18:27 | 1.110E+03 |
 |                           |   37 | 31/05/15 | 22:18:27 | 1.110E+03 |
 |                           |   38 | 31/05/15 | 22:18:27 | 1.110E+03 |
 |                           |   39 | 31/05/15 | 22:18:27 | 1.110E+03 |
 |                           |   40 | 31/05/15 | 22:18:27 | 1.110E+03 |
 +---------------------------+------+----------+----------+-----------+
 | RD000D3A20F09C            |   41 | 31/05/15 | 22:18:27 | 1.110E+03 |
 |                           |   42 | 31/05/15 | 22:18:27 | 1.110E+03 |
 |                           |   43 | 31/05/15 | 22:18:27 | 1.110E+03 |
 |                           |   44 | 31/05/15 | 22:18:27 | 1.110E+03 |
 |                           |   45 | 31/05/15 | 22:18:27 | 1.110E+03 |
 |                           |   46 | 31/05/15 | 22:18:27 | 1.110E+03 |
 |                           |   47 | 31/05/15 | 22:18:27 | 1.110E+03 |
 |                           |   48 | 31/05/15 | 22:18:27 | 1.110E+03 |
 +---------------------------+------+----------+----------+-----------+
 | RD000D3A20FD1D            |   49 | 31/05/15 | 22:18:27 | 1.111E+03 |
 |                           |   50 | 31/05/15 | 22:18:27 | 1.111E+03 |
 |                           |   51 | 31/05/15 | 22:18:27 | 1.111E+03 |
 |                           |   52 | 31/05/15 | 22:18:27 | 1.111E+03 |
 |                           |   53 | 31/05/15 | 22:18:27 | 1.111E+03 |
 |                           |   54 | 31/05/15 | 22:18:27 | 1.111E+03 |
 |                           |   55 | 31/05/15 | 22:18:27 | 1.111E+03 |
 |                           |   56 | 31/05/15 | 22:18:27 | 1.111E+03 |
 +---------------------------+------+----------+----------+-----------+
 | RD000D3A20F992            |   57 | 31/05/15 | 22:18:27 | 1.127E+03 |
 |                           |   58 | 31/05/15 | 22:18:27 | 1.127E+03 |
 |                           |   59 | 31/05/15 | 22:18:27 | 1.127E+03 |
 |                           |   60 | 31/05/15 | 22:18:27 | 1.127E+03 |
 |                           |   61 | 31/05/15 | 22:18:27 | 1.127E+03 |
 |                           |   62 | 31/05/15 | 22:18:27 | 1.127E+03 |
 |                           |   63 | 31/05/15 | 22:18:27 | 1.127E+03 |
 |                           |   64 | 31/05/15 | 22:18:27 | 1.127E+03 |
 +---------------------------+------+----------+----------+-----------+
 | RD000D3A20FF4D            |   65 | 31/05/15 | 22:18:27 | 1.110E+03 |
 |                           |   66 | 31/05/15 | 22:18:27 | 1.110E+03 |
 |                           |   67 | 31/05/15 | 22:18:27 | 1.110E+03 |
 |                           |   68 | 31/05/15 | 22:18:27 | 1.110E+03 |
 |                           |   69 | 31/05/15 | 22:18:27 | 1.110E+03 |
 |                           |   70 | 31/05/15 | 22:18:27 | 1.110E+03 |
 |                           |   71 | 31/05/15 | 22:18:27 | 1.110E+03 |
 |                           |   72 | 31/05/15 | 22:18:27 | 1.110E+03 |
 +---------------------------+------+----------+----------+-----------+
 | RD000D3A20FDD5            |   73 | 31/05/15 | 22:18:27 | 1.109E+03 |
 |                           |   74 | 31/05/15 | 22:18:27 | 1.109E+03 |
 |                           |   75 | 31/05/15 | 22:18:27 | 1.109E+03 |
 |                           |   76 | 31/05/15 | 22:18:27 | 1.109E+03 |
 |                           |   77 | 31/05/15 | 22:18:27 | 1.109E+03 |
 |                           |   78 | 31/05/15 | 22:18:27 | 1.109E+03 |
 |                           |   79 | 31/05/15 | 22:18:27 | 1.109E+03 |
 |                           |   80 | 31/05/15 | 22:18:27 | 1.109E+03 |
 +---------------------------+------+----------+----------+-----------+
 | RD000D3A20FAC8            |   81 | 31/05/15 | 22:18:27 | 1.110E+03 |
 |                           |   82 | 31/05/15 | 22:18:27 | 1.110E+03 |
 |                           |   83 | 31/05/15 | 22:18:27 | 1.110E+03 |
 |                           |   84 | 31/05/15 | 22:18:27 | 1.110E+03 |
 |                           |   85 | 31/05/15 | 22:18:27 | 1.110E+03 |
 |                           |   86 | 31/05/15 | 22:18:27 | 1.110E+03 |
 |                           |   87 | 31/05/15 | 22:18:27 | 1.110E+03 |
 |                           |   88 | 31/05/15 | 22:18:27 | 1.110E+03 |
 +---------------------------+------+----------+----------+-----------+
 | RD000D3A20FD02            |   89 | 31/05/15 | 22:18:27 | 1.110E+03 |
 |                           |   90 | 31/05/15 | 22:18:27 | 1.110E+03 |
 |                           |   91 | 31/05/15 | 22:18:27 | 1.110E+03 |
 |                           |   92 | 31/05/15 | 22:18:27 | 1.110E+03 |
 |                           |   93 | 31/05/15 | 22:18:27 | 1.110E+03 |
 |                           |   94 | 31/05/15 | 22:18:27 | 1.110E+03 |
 |                           |   95 | 31/05/15 | 22:18:27 | 1.110E+03 |
 |                           |   96 | 31/05/15 | 22:18:27 | 1.110E+03 |
 +---------------------------+------+----------+----------+-----------+
 | RD000D3A20F56D            |   97 | 31/05/15 | 22:18:27 | 1.111E+03 |
 |                           |   98 | 31/05/15 | 22:18:27 | 1.111E+03 |
 |                           |   99 | 31/05/15 | 22:18:27 | 1.111E+03 |
 |                           |  100 | 31/05/15 | 22:18:27 | 1.111E+03 |
 |                           |  101 | 31/05/15 | 22:18:27 | 1.111E+03 |
 |                           |  102 | 31/05/15 | 22:18:27 | 1.111E+03 |
 |                           |  103 | 31/05/15 | 22:18:27 | 1.111E+03 |
 |                           |  104 | 31/05/15 | 22:18:27 | 1.111E+03 |
 +---------------------------+------+----------+----------+-----------+
 | RD000D3A20F955            |  105 | 31/05/15 | 22:18:27 | 1.110E+03 |
 |                           |  106 | 31/05/15 | 22:18:27 | 1.110E+03 |
 |                           |  107 | 31/05/15 | 22:18:27 | 1.110E+03 |
 |                           |  108 | 31/05/15 | 22:18:27 | 1.110E+03 |
 |                           |  109 | 31/05/15 | 22:18:27 | 1.110E+03 |
 |                           |  110 | 31/05/15 | 22:18:27 | 1.110E+03 |
 |                           |  111 | 31/05/15 | 22:18:27 | 1.110E+03 |
 |                           |  112 | 31/05/15 | 22:18:27 | 1.110E+03 |
 +---------------------------+------+----------+----------+-----------+
 | RD000D3A20F737            |  113 | 31/05/15 | 22:18:27 | 1.114E+03 |
 |                           |  114 | 31/05/15 | 22:18:27 | 1.114E+03 |
 |                           |  115 | 31/05/15 | 22:18:27 | 1.114E+03 |
 |                           |  116 | 31/05/15 | 22:18:27 | 1.114E+03 |
 |                           |  117 | 31/05/15 | 22:18:27 | 1.114E+03 |
 |                           |  118 | 31/05/15 | 22:18:27 | 1.114E+03 |
 |                           |  119 | 31/05/15 | 22:18:27 | 1.114E+03 |
 |                           |  120 | 31/05/15 | 22:18:27 | 1.114E+03 |
 +---------------------------+------+----------+----------+-----------+
 | RD000D3A20FF26            |  121 | 31/05/15 | 22:18:27 | 1.110E+03 |
 |                           |  122 | 31/05/15 | 22:18:27 | 1.110E+03 |
 |                           |  123 | 31/05/15 | 22:18:27 | 1.110E+03 |
 |                           |  124 | 31/05/15 | 22:18:27 | 1.110E+03 |
 |                           |  125 | 31/05/15 | 22:18:27 | 1.110E+03 |
 |                           |  126 | 31/05/15 | 22:18:27 | 1.110E+03 |
 |                           |  127 | 31/05/15 | 22:18:27 | 1.110E+03 |
 |                           |  128 | 31/05/15 | 22:18:27 | 1.110E+03 |
 +---------------------------+------+----------+----------+-----------+
 | RD000D3A20FF33            |  129 | 31/05/15 | 22:18:27 | 1.130E+03 |
 |                           |  130 | 31/05/15 | 22:18:27 | 1.130E+03 |
 |                           |  131 | 31/05/15 | 22:18:27 | 1.130E+03 |
 |                           |  132 | 31/05/15 | 22:18:27 | 1.130E+03 |
 |                           |  133 | 31/05/15 | 22:18:27 | 1.130E+03 |
 |                           |  134 | 31/05/15 | 22:18:27 | 1.130E+03 |
 |                           |  135 | 31/05/15 | 22:18:27 | 1.130E+03 |
 |                           |  136 | 31/05/15 | 22:18:27 | 1.130E+03 |
 +---------------------------+------+----------+----------+-----------+
 | RD000D3A20F9DF            |  137 | 31/05/15 | 22:18:27 | 1.110E+03 |
 |                           |  138 | 31/05/15 | 22:18:27 | 1.110E+03 |
 |                           |  139 | 31/05/15 | 22:18:27 | 1.110E+03 |
 |                           |  140 | 31/05/15 | 22:18:27 | 1.110E+03 |
 |                           |  141 | 31/05/15 | 22:18:27 | 1.110E+03 |
 |                           |  142 | 31/05/15 | 22:18:27 | 1.110E+03 |
 |                           |  143 | 31/05/15 | 22:18:27 | 1.110E+03 |
 |                           |  144 | 31/05/15 | 22:18:27 | 1.110E+03 |
 +---------------------------+------+----------+----------+-----------+
 | RD000D3A20FFAE            |  145 | 31/05/15 | 22:18:27 | 1.110E+03 |
 |                           |  146 | 31/05/15 | 22:18:27 | 1.110E+03 |
 |                           |  147 | 31/05/15 | 22:18:27 | 1.110E+03 |
 |                           |  148 | 31/05/15 | 22:18:27 | 1.110E+03 |
 |                           |  149 | 31/05/15 | 22:18:27 | 1.110E+03 |
 |                           |  150 | 31/05/15 | 22:18:27 | 1.110E+03 |
 |                           |  151 | 31/05/15 | 22:18:27 | 1.110E+03 |
 |                           |  152 | 31/05/15 | 22:18:27 | 1.110E+03 |
 +---------------------------+------+----------+----------+-----------+
 | RD000D3A20FFF7            |  153 | 31/05/15 | 22:18:26 | 1.109E+03 |
 |                           |  154 | 31/05/15 | 22:18:26 | 1.109E+03 |
 |                           |  155 | 31/05/15 | 22:18:26 | 1.109E+03 |
 |                           |  156 | 31/05/15 | 22:18:26 | 1.109E+03 |
 |                           |  157 | 31/05/15 | 22:18:26 | 1.109E+03 |
 |                           |  158 | 31/05/15 | 22:18:26 | 1.109E+03 |
 |                           |  159 | 31/05/15 | 22:18:26 | 1.109E+03 |
 |                           |  160 | 31/05/15 | 22:18:26 | 1.109E+03 |
 +---------------------------+------+----------+----------+-----------+
 | RD000D3A20FFF2            |  161 | 31/05/15 | 22:18:27 | 1.125E+03 |
 |                           |  162 | 31/05/15 | 22:18:27 | 1.125E+03 |
 |                           |  163 | 31/05/15 | 22:18:27 | 1.125E+03 |
 |                           |  164 | 31/05/15 | 22:18:27 | 1.125E+03 |
 |                           |  165 | 31/05/15 | 22:18:27 | 1.125E+03 |
 |                           |  166 | 31/05/15 | 22:18:27 | 1.125E+03 |
 |                           |  167 | 31/05/15 | 22:18:27 | 1.125E+03 |
 |                           |  168 | 31/05/15 | 22:18:27 | 1.125E+03 |
 +---------------------------+------+----------+----------+-----------+
 | RD000D3A20FBBC            |  169 | 31/05/15 | 22:18:27 | 1.109E+03 |
 |                           |  170 | 31/05/15 | 22:18:27 | 1.109E+03 |
 |                           |  171 | 31/05/15 | 22:18:27 | 1.109E+03 |
 |                           |  172 | 31/05/15 | 22:18:27 | 1.109E+03 |
 |                           |  173 | 31/05/15 | 22:18:27 | 1.109E+03 |
 |                           |  174 | 31/05/15 | 22:18:27 | 1.109E+03 |
 |                           |  175 | 31/05/15 | 22:18:27 | 1.109E+03 |
 |                           |  176 | 31/05/15 | 22:18:27 | 1.109E+03 |
 +---------------------------+------+----------+----------+-----------+
 | RD000D3A20F6C8            |  177 | 31/05/15 | 22:18:27 | 1.120E+03 |
 |                           |  178 | 31/05/15 | 22:18:27 | 1.120E+03 |
 |                           |  179 | 31/05/15 | 22:18:27 | 1.120E+03 |
 |                           |  180 | 31/05/15 | 22:18:27 | 1.120E+03 |
 |                           |  181 | 31/05/15 | 22:18:27 | 1.120E+03 |
 |                           |  182 | 31/05/15 | 22:18:27 | 1.120E+03 |
 |                           |  183 | 31/05/15 | 22:18:27 | 1.120E+03 |
 |                           |  184 | 31/05/15 | 22:18:27 | 1.120E+03 |
 +---------------------------+------+----------+----------+-----------+
 | RD000D3A20F540            |  185 | 31/05/15 | 22:18:27 | 1.114E+03 |
 |                           |  186 | 31/05/15 | 22:18:27 | 1.114E+03 |
 |                           |  187 | 31/05/15 | 22:18:27 | 1.114E+03 |
 |                           |  188 | 31/05/15 | 22:18:27 | 1.114E+03 |
 |                           |  189 | 31/05/15 | 22:18:27 | 1.114E+03 |
 |                           |  190 | 31/05/15 | 22:18:27 | 1.114E+03 |
 |                           |  191 | 31/05/15 | 22:18:27 | 1.114E+03 |
 |                           |  192 | 31/05/15 | 22:18:27 | 1.114E+03 |
 +---------------------------+------+----------+----------+-----------+
 | RD000D3A20FB40            |  193 | 31/05/15 | 22:18:27 | 1.110E+03 |
 |                           |  194 | 31/05/15 | 22:18:27 | 1.110E+03 |
 |                           |  195 | 31/05/15 | 22:18:27 | 1.110E+03 |
 |                           |  196 | 31/05/15 | 22:18:27 | 1.110E+03 |
 |                           |  197 | 31/05/15 | 22:18:27 | 1.110E+03 |
 |                           |  198 | 31/05/15 | 22:18:27 | 1.110E+03 |
 |                           |  199 | 31/05/15 | 22:18:27 | 1.110E+03 |
 |                           |  200 | 31/05/15 | 22:18:27 | 1.110E+03 |
 +---------------------------+------+----------+----------+-----------+
 | RD000D3A20FC6F            |  201 | 31/05/15 | 22:18:26 | 1.133E+03 |
 |                           |  202 | 31/05/15 | 22:18:26 | 1.133E+03 |
 |                           |  203 | 31/05/15 | 22:18:26 | 1.133E+03 |
 |                           |  204 | 31/05/15 | 22:18:26 | 1.133E+03 |
 |                           |  205 | 31/05/15 | 22:18:26 | 1.133E+03 |
 |                           |  206 | 31/05/15 | 22:18:26 | 1.133E+03 |
 |                           |  207 | 31/05/15 | 22:18:26 | 1.133E+03 |
 |                           |  208 | 31/05/15 | 22:18:26 | 1.133E+03 |
 +---------------------------+------+----------+----------+-----------+
 | RD000D3A20F623            |  209 | 31/05/15 | 22:18:27 | 1.109E+03 |
 |                           |  210 | 31/05/15 | 22:18:27 | 1.109E+03 |
 |                           |  211 | 31/05/15 | 22:18:27 | 1.109E+03 |
 |                           |  212 | 31/05/15 | 22:18:27 | 1.109E+03 |
 |                           |  213 | 31/05/15 | 22:18:27 | 1.109E+03 |
 |                           |  214 | 31/05/15 | 22:18:27 | 1.109E+03 |
 |                           |  215 | 31/05/15 | 22:18:27 | 1.109E+03 |
 |                           |  216 | 31/05/15 | 22:18:27 | 1.109E+03 |
 +---------------------------+------+----------+----------+-----------+
 | RD000D3A20F424            |  217 | 31/05/15 | 22:18:27 | 1.176E+03 |
 |                           |  218 | 31/05/15 | 22:18:27 | 1.176E+03 |
 |                           |  219 | 31/05/15 | 22:18:27 | 1.176E+03 |
 |                           |  220 | 31/05/15 | 22:18:27 | 1.176E+03 |
 |                           |  221 | 31/05/15 | 22:18:27 | 1.176E+03 |
 |                           |  222 | 31/05/15 | 22:18:27 | 1.176E+03 |
 |                           |  223 | 31/05/15 | 22:18:27 | 1.176E+03 |
 |                           |  224 | 31/05/15 | 22:18:27 | 1.176E+03 |
 +---------------------------+------+----------+----------+-----------+
 | RD000D3A20FB55            |  225 | 31/05/15 | 22:18:27 | 1.109E+03 |
 |                           |  226 | 31/05/15 | 22:18:27 | 1.109E+03 |
 |                           |  227 | 31/05/15 | 22:18:27 | 1.109E+03 |
 |                           |  228 | 31/05/15 | 22:18:27 | 1.109E+03 |
 |                           |  229 | 31/05/15 | 22:18:27 | 1.109E+03 |
 |                           |  230 | 31/05/15 | 22:18:27 | 1.109E+03 |
 |                           |  231 | 31/05/15 | 22:18:27 | 1.109E+03 |
 |                           |  232 | 31/05/15 | 22:18:27 | 1.109E+03 |
 +---------------------------+------+----------+----------+-----------+
 | RD000D3A20FB7B            |  233 | 31/05/15 | 22:18:27 | 1.110E+03 |
 |                           |  234 | 31/05/15 | 22:18:27 | 1.110E+03 |
 |                           |  235 | 31/05/15 | 22:18:27 | 1.110E+03 |
 |                           |  236 | 31/05/15 | 22:18:27 | 1.110E+03 |
 |                           |  237 | 31/05/15 | 22:18:27 | 1.110E+03 |
 |                           |  238 | 31/05/15 | 22:18:27 | 1.110E+03 |
 |                           |  239 | 31/05/15 | 22:18:27 | 1.110E+03 |
 |                           |  240 | 31/05/15 | 22:18:27 | 1.110E+03 |
 +---------------------------+------+----------+----------+-----------+
 | RD000D3A20FBFE            |  241 | 31/05/15 | 22:18:27 | 1.126E+03 |
 |                           |  242 | 31/05/15 | 22:18:27 | 1.126E+03 |
 |                           |  243 | 31/05/15 | 22:18:27 | 1.126E+03 |
 |                           |  244 | 31/05/15 | 22:18:27 | 1.126E+03 |
 |                           |  245 | 31/05/15 | 22:18:27 | 1.126E+03 |
 |                           |  246 | 31/05/15 | 22:18:27 | 1.126E+03 |
 |                           |  247 | 31/05/15 | 22:18:27 | 1.126E+03 |
 |                           |  248 | 31/05/15 | 22:18:27 | 1.126E+03 |
 +---------------------------+------+----------+----------+-----------+
 | RD000D3A20FBBD            |  249 | 31/05/15 | 22:18:27 | 1.110E+03 |
 |                           |  250 | 31/05/15 | 22:18:27 | 1.110E+03 |
 |                           |  251 | 31/05/15 | 22:18:27 | 1.110E+03 |
 |                           |  252 | 31/05/15 | 22:18:27 | 1.110E+03 |
 |                           |  253 | 31/05/15 | 22:18:27 | 1.110E+03 |
 |                           |  254 | 31/05/15 | 22:18:27 | 1.110E+03 |
 |                           |  255 | 31/05/15 | 22:18:27 | 1.110E+03 |
 |                           |  256 | 31/05/15 | 22:18:27 | 1.110E+03 |
 +---------------------------+------+----------+----------+-----------+

 Total wall clock time: 1.108E+03 seconds
             or: (          0:         0:        18:    28.038 )
                 (       Days:     Hours:   Minutes:   Seconds )



 --> Final synchronization point reached by all partitions.
End of solution stage.

 +--------------------------------------------------------------------+
 | The results from this run of the ANSYS CFX Solver have been        |
 | written to                                                         |
 | \\10.10.13.6\C\Resources\directory\bc93f7dd415240d49edbf818f90344- |
 | bc.HSR.AzureEE.HpcWorkerRole.jobdata\job-8\pipe07_001.res          |
 +--------------------------------------------------------------------+


This run of the ANSYS CFX Solver has finished.
