 This run of the CFX-15.0.7 Solver started at 19:51:40 on 26 May 2015 by
 user MpiUser on RD000D3A21E6D9 (intel_xeon64.sse2_winnt) using the
 command:
 
  "\\hsransys.file.core.windows.net\main\apps\ANSYS Inc\v150\CFX\bin\perllib\cfx5solve.pl"
    -def pipe05.def -chdir
    \\10.10.13.6\C\Resources\directory\1f74c960e9304402adcb98b803ab572f.HSR.AzureEE.HpcWorkerRole.jobdata\job-1
    -start-method MSMPI2 -part 256
 
 Point Releases and Patches installed:
 
  ANSYS, Inc. Products 15.0.7
  ANSYS Mechanical Products 15.0.7
  ANSYS Autodyn 15.0.7
  ANSYS LS-DYNA 15.0.7
  ANSYS CFX (includes ANSYS CFD-Post) 15.0.7
  ANSYS Fluent (includes ANSYS CFD-Post) 15.0.7
  ANSYS TurboGrid 15.0.7
  ANSYS Polyflow (includes ANSYS CFD-Post) 15.0.7
  ANSYS Aqwa 15.0.7
  ANSYS ICEM CFD 15.0.7
  ANSYS Icepak (includes ANSYS CFD-Post) 15.0.7
  Catia, Version 6 15.0.7
  ANSYS, Inc. License Manager 15.0.7
 
 Setting up CFX Solver run ...
 

 +--------------------------------------------------------------------+
 |                              Warning!                              |
 |                                                                    |
 | The working directory is a UNC path, but the Windows command shell |
 | is currently not configured to support UNC paths. This may cause   |
 | failure of the CFX Solver.                                         |
 |                                                                    |
 | Command shell support for UNC paths can be enabled by setting the  |
 | Windows registry key DisableUNCCheck.                              |
 +--------------------------------------------------------------------+


 +--------------------------------------------------------------------+
 |                                                                    |
 |                    CFX Command Language Upgrade                    |
 |                                                                    |
 +--------------------------------------------------------------------+

 Added /SIMULATION CONTROL/EXECUTION CONTROL/EXECUTABLE SELECTION/Double
 Precision = Off.
 

 +--------------------------------------------------------------------+
 |                                                                    |
 |                    CFX Command Language for Run                    |
 |                                                                    |
 +--------------------------------------------------------------------+

 LIBRARY:
   CEL:
     EXPRESSIONS:
       DeltaT = probe(T)@MP3-273.15[K]
     END
   END
   MATERIAL: PE100RC
     Material Group = CHT Solids
     Option = Pure Substance
     Thermodynamic State = Solid
     PROPERTIES:
       Option = General Material
       EQUATION OF STATE:
         Density = 960 [kg m^-3]
         Molar Mass = 1.0 [kg kmol^-1]
         Option = Value
       END
       SPECIFIC HEAT CAPACITY:
         Option = Value
         Specific Heat Capacity = 1900 [J kg^-1 K^-1]
       END
       THERMAL CONDUCTIVITY:
         Option = Value
         Thermal Conductivity = 0.38 [W m^-1 K^-1]
       END
     END
   END
   MATERIAL: Water Glycol Mixture
     Material Description = Water (liquid)
     Material Group = Water Data,Constant Property Liquids
     Option = Pure Substance
     Thermodynamic State = Liquid
     PROPERTIES:
       Option = General Material
       EQUATION OF STATE:
         Density = 1042 [kg m^-3]
         Molar Mass = 18.02 [kg kmol^-1]
         Option = Value
       END
       SPECIFIC HEAT CAPACITY:
         Option = Value
         Specific Heat Capacity = 3481 [J kg^-1 K^-1]
         Specific Heat Type = Constant Pressure
       END
       REFERENCE STATE:
         Option = Specified Point
         Reference Pressure = 1 [atm]
         Reference Specific Enthalpy = 0.0 [J/kg]
         Reference Specific Entropy = 0.0 [J/kg/K]
         Reference Temperature = 0 [C]
       END
       DYNAMIC VISCOSITY:
         Dynamic Viscosity = 8.899E-4 [kg m^-1 s^-1]
         Option = Value
       END
       THERMAL CONDUCTIVITY:
         Option = Value
         Thermal Conductivity = 0.6069 [W m^-1 K^-1]
       END
       ABSORPTION COEFFICIENT:
         Absorption Coefficient = 1.0 [m^-1]
         Option = Value
       END
       SCATTERING COEFFICIENT:
         Option = Value
         Scattering Coefficient = 0.0 [m^-1]
       END
       REFRACTIVE INDEX:
         Option = Value
         Refractive Index = 1.0 [m m^-1]
       END
       THERMAL EXPANSIVITY:
         Option = Value
         Thermal Expansivity = 2.57E-04 [K^-1]
       END
     END
   END
 END
 FLOW: Flow Analysis 1
   SOLUTION UNITS:
     Angle Units = [rad]
     Length Units = [m]
     Mass Units = [kg]
     Solid Angle Units = [sr]
     Temperature Units = [K]
     Time Units = [s]
   END
   ANALYSIS TYPE:
     Option = Steady State
     EXTERNAL SOLVER COUPLING:
       Option = None
     END
   END
   DOMAIN: FluidDom
     Coord Frame = Coord 0
     Domain Type = Fluid
     Location = B446
     BOUNDARY: Default Fluid Solid Interface Side 1
       Boundary Type = INTERFACE
       Location = F449.446,F450.446,F452.446,F453.446,F454.446
       BOUNDARY CONDITIONS:
         HEAT TRANSFER:
           Option = Conservative Interface Flux
         END
         MASS AND MOMENTUM:
           Option = No Slip Wall
         END
         WALL ROUGHNESS:
           Option = Smooth Wall
         END
       END
     END
     BOUNDARY: Domain Interface 1 Side 1 1
       Boundary Type = INTERFACE
       Location = FluidSym01
       BOUNDARY CONDITIONS:
         HEAT TRANSFER:
           Option = Conservative Interface Flux
         END
         MASS AND MOMENTUM:
           Option = Conservative Interface Flux
         END
         TURBULENCE:
           Option = Conservative Interface Flux
         END
       END
     END
     BOUNDARY: Domain Interface 2 Side 1
       Boundary Type = INTERFACE
       Location = FluidSym02
       BOUNDARY CONDITIONS:
         HEAT TRANSFER:
           Option = Conservative Interface Flux
         END
         MASS AND MOMENTUM:
           Option = Conservative Interface Flux
         END
         TURBULENCE:
           Option = Conservative Interface Flux
         END
       END
     END
     BOUNDARY: Inlet
       Boundary Type = INLET
       Location = F447.446
       BOUNDARY CONDITIONS:
         FLOW REGIME:
           Option = Subsonic
         END
         HEAT TRANSFER:
           Option = Static Temperature
           Static Temperature = 273.15 [K]
         END
         MASS AND MOMENTUM:
           Normal Speed = 0.05 [m s^-1]
           Option = Normal Speed
         END
         TURBULENCE:
           Option = Medium Intensity and Eddy Viscosity Ratio
         END
       END
     END
     BOUNDARY: Outlet
       Boundary Type = OUTLET
       Location = F451.446
       BOUNDARY CONDITIONS:
         FLOW REGIME:
           Option = Subsonic
         END
         MASS AND MOMENTUM:
           Normal Speed = 0.05 [m s^-1]
           Option = Normal Speed
         END
       END
     END
     DOMAIN MODELS:
       BUOYANCY MODEL:
         Option = Non Buoyant
       END
       DOMAIN MOTION:
         Option = Stationary
       END
       MESH DEFORMATION:
         Option = None
       END
       REFERENCE PRESSURE:
         Reference Pressure = 1 [atm]
       END
     END
     FLUID DEFINITION: Fluid 1
       Material = Water Glycol Mixture
       Option = Material Library
       MORPHOLOGY:
         Option = Continuous Fluid
       END
     END
     FLUID MODELS:
       COMBUSTION MODEL:
         Option = None
       END
       HEAT TRANSFER MODEL:
         Option = Thermal Energy
       END
       THERMAL RADIATION MODEL:
         Option = None
       END
       TURBULENCE MODEL:
         Option = k epsilon
       END
       TURBULENT WALL FUNCTIONS:
         Option = Scalable
       END
     END
     SOURCE POINT: Origin
       Cartesian Coordinates = 0.0[m],0.0[m],0.0[m]
       Option = Cartesian Coordinates
     END
   END
   DOMAIN: TubeDom
     Coord Frame = Coord 0
     Domain Type = Solid
     Location = B378,B662
     BOUNDARY: Default Fluid Solid Interface Side 2
       Boundary Type = INTERFACE
       Location = \
         F379.378,F380.378,F381.378,F382.378,F383.378,F666.662,F668.662,F670.6\
         62,F672.662,F674.662
       BOUNDARY CONDITIONS:
         HEAT TRANSFER:
           Option = Conservative Interface Flux
         END
       END
     END
     BOUNDARY: Domain Interface 1 Side 1
       Boundary Type = INTERFACE
       Location = TubeIntFace01
       BOUNDARY CONDITIONS:
         HEAT TRANSFER:
           Option = Conservative Interface Flux
         END
       END
     END
     BOUNDARY: Domain Interface 1 Side 2
       Boundary Type = INTERFACE
       Location = TubeIntFace02
       BOUNDARY CONDITIONS:
         HEAT TRANSFER:
           Option = Conservative Interface Flux
         END
       END
     END
     BOUNDARY: Domain Interface 2 Side 2
       Boundary Type = INTERFACE
       Location = TubeSymFace01
       BOUNDARY CONDITIONS:
         HEAT TRANSFER:
           Option = Conservative Interface Flux
         END
       END
     END
     BOUNDARY: SymmetrieSolid Side 1
       Boundary Type = INTERFACE
       Location = TubeSymFace02
       BOUNDARY CONDITIONS:
         HEAT TRANSFER:
           Option = Conservative Interface Flux
         END
       END
     END
     BOUNDARY: TubeDom Default
       Boundary Type = WALL
       Location = \
         F390.378,F391.378,F392.378,F393.378,F394.378,F676.662,F677.662,F678.6\
         62,F679.662,F680.662
       BOUNDARY CONDITIONS:
         HEAT TRANSFER:
           Option = Adiabatic
         END
       END
     END
     BOUNDARY: TubeOuterWallAdia
       Boundary Type = WALL
       Location = TubeOuterWall01
       BOUNDARY CONDITIONS:
         HEAT TRANSFER:
           Option = Adiabatic
         END
       END
     END
     BOUNDARY: TubeOuterWallHeatex
       Boundary Type = WALL
       Location = TubeOuterWall02
       BOUNDARY CONDITIONS:
         HEAT TRANSFER:
           Fixed Temperature = 283.15 [K]
           Option = Fixed Temperature
         END
       END
     END
     DOMAIN MODELS:
       DOMAIN MOTION:
         Option = Stationary
       END
       MESH DEFORMATION:
         Option = None
       END
     END
     SOLID DEFINITION: Solid 1
       Material = PE100RC
       Option = Material Library
       MORPHOLOGY:
         Option = Continuous Solid
       END
     END
     SOLID MODELS:
       HEAT TRANSFER MODEL:
         Option = Thermal Energy
       END
       THERMAL RADIATION MODEL:
         Option = None
       END
     END
   END
   DOMAIN INTERFACE: Default Fluid Solid Interface
     Boundary List1 = Default Fluid Solid Interface Side 1
     Boundary List2 = Default Fluid Solid Interface Side 2
     Interface Type = Fluid Solid
     INTERFACE MODELS:
       Option = General Connection
       FRAME CHANGE:
         Option = None
       END
       PITCH CHANGE:
         Option = None
       END
     END
     MESH CONNECTION:
       Option = Automatic
     END
   END
   DOMAIN INTERFACE: Domain Interface 1
     Boundary List1 = Domain Interface 1 Side 1
     Boundary List2 = Domain Interface 1 Side 2
     Interface Type = Solid Solid
     INTERFACE MODELS:
       Option = General Connection
       FRAME CHANGE:
         Option = None
       END
       PITCH CHANGE:
         Option = None
       END
     END
     MESH CONNECTION:
       Option = Automatic
     END
   END
   DOMAIN INTERFACE: SymmetrieFluid
     Boundary List1 = Domain Interface 1 Side 1 1
     Boundary List2 = Domain Interface 2 Side 1
     Interface Type = Fluid Fluid
     INTERFACE MODELS:
       Option = Rotational Periodicity
       AXIS DEFINITION:
         Option = Coordinate Axis
         Rotation Axis = Coord 0.1
       END
     END
     MESH CONNECTION:
       Option = GGI
       INTERSECTION CONTROL:
         Option = Direct
         Periodic Axial Radial Tolerance = 0.001
       END
     END
   END
   DOMAIN INTERFACE: SymmetrieSolid
     Boundary List1 = Domain Interface 2 Side 2
     Boundary List2 = SymmetrieSolid Side 1
     Interface Type = Solid Solid
     INTERFACE MODELS:
       Option = Rotational Periodicity
       AXIS DEFINITION:
         Option = Coordinate Axis
         Rotation Axis = Coord 0.1
       END
     END
     MESH CONNECTION:
       Option = Automatic
       INTERSECTION CONTROL:
         Option = Direct
         Periodic Axial Radial Tolerance = 0.0001
       END
     END
   END
   OUTPUT CONTROL:
     MONITOR OBJECTS:
       MONITOR BALANCES:
         Option = Full
       END
       MONITOR FORCES:
         Option = Full
       END
       MONITOR PARTICLES:
         Option = Full
       END
       MONITOR POINT: MP1
         Cartesian Coordinates = 2.5 [m], 0 [m], 0 [m]
         Coord Frame = Coord 0
         Option = Cartesian Coordinates
         Output Variables List = Courant Number,Pressure,Temperature,Velocity
         MONITOR LOCATION CONTROL:
           Interpolation Type = Nearest Vertex
         END
         POSITION UPDATE FREQUENCY:
           Option = Initial Mesh Only
         END
       END
       MONITOR POINT: MP2
         Cartesian Coordinates = 2.5 [m], 0.012 [m], 0 [m]
         Coord Frame = Coord 0
         Option = Cartesian Coordinates
         Output Variables List = Courant Number,Pressure,Temperature,Velocity
         MONITOR LOCATION CONTROL:
           Interpolation Type = Nearest Vertex
         END
         POSITION UPDATE FREQUENCY:
           Option = Initial Mesh Only
         END
       END
       MONITOR POINT: MP3
         Cartesian Coordinates = 2.5 [m], 0.024 [m], 0 [m]
         Coord Frame = Coord 0
         Option = Cartesian Coordinates
         Output Variables List = Courant Number,Pressure,Temperature,Velocity
         MONITOR LOCATION CONTROL:
           Interpolation Type = Nearest Vertex
         END
         POSITION UPDATE FREQUENCY:
           Option = Initial Mesh Only
         END
       END
       MONITOR POINT: MP3_1
         Coord Frame = Coord 0
         Expression Value = DeltaT
         Option = Expression
       END
       MONITOR RESIDUALS:
         Option = Full
       END
       MONITOR TOTALS:
         Option = Full
       END
     END
     RESULTS:
       File Compression Level = Default
       Option = Standard
     END
   END
   SOLVER CONTROL:
     Turbulence Numerics = First Order
     ADVECTION SCHEME:
       Option = High Resolution
     END
     CONVERGENCE CONTROL:
       Length Scale Option = Conservative
       Maximum Number of Iterations = 200
       Minimum Number of Iterations = 1
       Solid Timescale Control = Auto Timescale
       Timescale Control = Auto Timescale
       Timescale Factor = 1.0
     END
     CONVERGENCE CRITERIA:
       Residual Target = 0.000001
       Residual Type = RMS
     END
     DYNAMIC MODEL CONTROL:
       Global Dynamic Model Control = On
     END
   END
 END
 COMMAND FILE:
   Version = 16.0
   Results Version = 15.0.7
 END
 SIMULATION CONTROL:
   EXECUTION CONTROL:
     EXECUTABLE SELECTION:
       Double Precision = Off
     END
     PARALLEL HOST LIBRARY:
       HOST DEFINITION: rd000d3a21e6d9
         Host Architecture String = winnt-amd64
         Installation Root = \\hsransys.file.core.windows.net\main\apps\ANSYS \
           Inc\v%v\CFX
       END
     END
     PARTITIONER STEP CONTROL:
       PARTITIONING TYPE:
         Option = MeTiS
         MeTiS Type = k-way
         Partition Size Rule = Automatic
         Partition Weight Factors = 0.00391, 0.00391, 0.00391, 0.00391, \
           0.00391, 0.00391, 0.00391, 0.00391, 0.00391, 0.00391, 0.00391, \
           0.00391, 0.00391, 0.00391, 0.00391, 0.00391, 0.00391, 0.00391, \
           0.00391, 0.00391, 0.00391, 0.00391, 0.00391, 0.00391, 0.00391, \
           0.00391, 0.00391, 0.00391, 0.00391, 0.00391, 0.00391, 0.00391, \
           0.00391, 0.00391, 0.00391, 0.00391, 0.00391, 0.00391, 0.00391, \
           0.00391, 0.00391, 0.00391, 0.00391, 0.00391, 0.00391, 0.00391, \
           0.00391, 0.00391, 0.00391, 0.00391, 0.00391, 0.00391, 0.00391, \
           0.00391, 0.00391, 0.00391, 0.00391, 0.00391, 0.00391, 0.00391, \
           0.00391, 0.00391, 0.00391, 0.00391, 0.00391, 0.00391, 0.00391, \
           0.00391, 0.00391, 0.00391, 0.00391, 0.00391, 0.00391, 0.00391, \
           0.00391, 0.00391, 0.00391, 0.00391, 0.00391, 0.00391, 0.00391, \
           0.00391, 0.00391, 0.00391, 0.00391, 0.00391, 0.00391, 0.00391, \
           0.00391, 0.00391, 0.00391, 0.00391, 0.00391, 0.00391, 0.00391, \
           0.00391, 0.00391, 0.00391, 0.00391, 0.00391, 0.00391, 0.00391, \
           0.00391, 0.00391, 0.00391, 0.00391, 0.00391, 0.00391, 0.00391, \
           0.00391, 0.00391, 0.00391, 0.00391, 0.00391, 0.00391, 0.00391, \
           0.00391, 0.00391, 0.00391, 0.00391, 0.00391, 0.00391, 0.00391, \
           0.00391, 0.00391, 0.00391, 0.00391, 0.00391, 0.00391, 0.00391, \
           0.00391, 0.00391, 0.00391, 0.00391, 0.00391, 0.00391, 0.00391, \
           0.00391, 0.00391, 0.00391, 0.00391, 0.00391, 0.00391, 0.00391, \
           0.00391, 0.00391, 0.00391, 0.00391, 0.00391, 0.00391, 0.00391, \
           0.00391, 0.00391, 0.00391, 0.00391, 0.00391, 0.00391, 0.00391, \
           0.00391, 0.00391, 0.00391, 0.00391, 0.00391, 0.00391, 0.00391, \
           0.00391, 0.00391, 0.00391, 0.00391, 0.00391, 0.00391, 0.00391, \
           0.00391, 0.00391, 0.00391, 0.00391, 0.00391, 0.00391, 0.00391, \
           0.00391, 0.00391, 0.00391, 0.00391, 0.00391, 0.00391, 0.00391, \
           0.00391, 0.00391, 0.00391, 0.00391, 0.00391, 0.00391, 0.00391, \
           0.00391, 0.00391, 0.00391, 0.00391, 0.00391, 0.00391, 0.00391, \
           0.00391, 0.00391, 0.00391, 0.00391, 0.00391, 0.00391, 0.00391, \
           0.00391, 0.00391, 0.00391, 0.00391, 0.00391, 0.00391, 0.00391, \
           0.00391, 0.00391, 0.00391, 0.00391, 0.00391, 0.00391, 0.00391, \
           0.00391, 0.00391, 0.00391, 0.00391, 0.00391, 0.00391, 0.00391, \
           0.00391, 0.00391, 0.00391, 0.00391, 0.00391, 0.00391, 0.00391, \
           0.00391, 0.00391, 0.00391, 0.00391, 0.00391, 0.00391, 0.00391, \
           0.00391, 0.00391, 0.00391, 0.00391, 0.00391, 0.00391, 0.00391, \
           0.00391, 0.00391, 0.00391, 0.00391, 0.00391, 0.00391, 0.00391
       END
     END
     RUN DEFINITION:
       Solver Input File = \
         \\10.10.13.6\C\Resources\directory\1f74c960e9304402adcb98b803ab572f.H\
         SR.AzureEE.HpcWorkerRole.jobdata\job-1\pipe05.def
       Run Mode = Full
     END
     SOLVER STEP CONTROL:
       PARALLEL ENVIRONMENT:
         Start Method = MSMPI2
         Number of Processes = 256
         Parallel Host List = rd000d3a21e6d9*256
       END
     END
   END
 END
 

 +--------------------------------------------------------------------+
 |                                                                    |
 |                            Partitioning                            |
 |                                                                    |
 +--------------------------------------------------------------------+




 +--------------------------------------------------------------------+
 |                                                                    |
 |                 ANSYS(R) CFX(R) Partitioner 15.0.7                 |
 |                                                                    |
 | Version 2014.04.10-23.00-131675     Thu Apr 10 23:23:37 GMTDT 2014 |
 |                                                                    |
 |                        Executable Attributes                       |
 |                                                                    |
 |          single-64bit-int32-supfort-optimised-noprof-lcomp         |
 |                                                                    |
 | (C) 2014 ANSYS, Inc.                                               |
 |                                                                    |
 | All rights reserved. Unauthorized use, distribution or duplication |
 | is prohibited. This product is subject to U.S. laws governing      |
 | export and re-export. For full Legal Notice, see documentation.    |
 +--------------------------------------------------------------------+




 +--------------------------------------------------------------------+
 |                  Job Information at Start of Run                   |
 +--------------------------------------------------------------------+

 Run mode:       partitioning run

 +------------------------------+------+--------+----------+----------+
 | Host                         | Mesh |  PID   |     Job Started     |
 |                              | Part |        | DD/MM/YY | hh:mm:ss |
 +------------------------------+------+--------+----------+----------+
 | RD000D3A21E6D9               |    1 |   1704 | 26/05/15 | 19:51:52 |
 +------------------------------+------+--------+----------+----------+


 +--------------------------------------------------------------------+
 |        Memory Allocated for Run  (Actual usage may be less)        |
 +--------------------------------------------------------------------+

           | Real       | Integer    | Character | Logical  | Double
 ----------+------------+------------+-----------+----------+----------
 Mwords    |      89.37 |     211.30 |      3.39 |     0.12 |     1.20
 Mbytes    |     340.91 |     806.04 |      3.24 |     0.46 |     9.16
 ----------+------------+------------+-----------+----------+----------


 +--------------------------------------------------------------------+
 |                  Host Memory Information (Mbytes)                  |
 +--------------------------------------------------------------------+
 |          Host           |     System     |   Allocated    |   %    |
 +-------------------------+----------------+----------------+--------+
 | RD000D3A21E6D9          |     57343.55   |      1159.81   |   2.02 |
 +-------------------------+----------------+----------------+--------+

 +--------------------------------------------------------------------+
 |                          Mesh Statistics                           |
 +--------------------------------------------------------------------+

 Domain Name : FluidDom

     Total Number of Nodes                                =     4201400

     Total Number of Elements                             =     3945000
         Total Number of Prisms                           =       24000
         Total Number of Hexahedrons                      =     3921000

     Total Number of Faces                                =      530630

 Domain Name : TubeDom

     Total Number of Nodes                                =      111636

     Total Number of Elements                             =       65210
         Total Number of Hexahedrons                      =       65210

     Total Number of Faces                                =       89240
 
 Global Statistics :

     Global Number of Nodes                               =     4313036

     Global Number of Elements                            =     4010210
         Total Number of Prisms                           =       24000
         Total Number of Hexahedrons                      =     3986210

     Global Number of Faces                               =      619870

 Domain Interface Name : Default Fluid Solid Interface

     Discretization type                                  =         GGI
     Intersection type                                    =      Direct
     Non-overlap area fraction on side 1                  =    1.61E-02
     Non-overlap area fraction on side 2                  =    1.55E-02

 Domain Interface Name : Domain Interface 1

     Discretization type                                  =         GGI
     Intersection type                                    =      Direct
     Non-overlap area fraction on side 1                  =    2.18E-02
     Non-overlap area fraction on side 2                  =    8.24E-02

 Domain Interface Name : SymmetrieFluid

     Discretization type                                  =         GGI
     Intersection type                                    =      Direct
     Non-overlap area fraction on side 1                  =    0.00E+00
     Non-overlap area fraction on side 2                  =    0.00E+00

 Domain Interface Name : SymmetrieSolid

     Discretization type                                  =         1:1
     Intersection type                                    =      Direct

 +--------------------------------------------------------------------+
 |                     Vertex Based Partitioning                      |
 +--------------------------------------------------------------------+

 Partitioning of domain: FluidDom

 - Partitioning tool:       MeTiS multilevel k-way algorithm
 - Number of partitions:           256
 - Number of graph-nodes:      4201400
 - Number of graph-edges:     27159902

 Partitioning of domain: TubeDom

 - Partitioning tool:       MeTiS multilevel k-way algorithm
 - Number of partitions:           256
 - Number of graph-nodes:       107514
 - Number of graph-edges:       561676

 +--------------------------------------------------------------------+
 |                      Partitioning Information                      |
 +--------------------------------------------------------------------+

 Partitioning information for domain: FluidDom

        +------------------+------------------------+-----------------+
        |     Elements     |        Vertices        |     Faces       |
 +------+------------------+------------------------+-----------------+
 | Part |   Number     %   |   Number     %   %Ovlp |  Number     %   |
 +------+------------------+------------------------+-----------------+
 | Full |   3945000        |   4201400              |   530630        |
 +------+------------------+------------------------+-----------------+
 |    1 |     16484    0.4 |     19650    0.4  19.8 |     2836    0.3 |
 |    2 |     19373    0.4 |     22910    0.4  23.6 |     2333    0.3 |
 |    3 |     18375    0.4 |     21735    0.4  21.2 |     2773    0.3 |
 |    4 |     15679    0.3 |     18946    0.3  19.2 |     3650    0.4 |
 |    5 |     18003    0.4 |     21022    0.4  18.6 |     2596    0.3 |
 |    6 |     17828    0.4 |     20975    0.4  19.3 |     2785    0.3 |
 |    7 |     18081    0.4 |     21500    0.4  22.8 |     2632    0.3 |
 |    8 |     16600    0.4 |     20143    0.4  21.4 |     3612    0.4 |
 |    9 |     17943    0.4 |     20939    0.4  18.5 |     2606    0.3 |
 |   10 |     18153    0.4 |     21420    0.4  20.7 |     2671    0.3 |
 |   11 |     16772    0.4 |     19929    0.4  20.2 |     2998    0.4 |
 |   12 |     16342    0.4 |     19767    0.4  20.7 |     3595    0.4 |
 |   13 |     17446    0.4 |     20779    0.4  20.1 |     3213    0.4 |
 |   14 |     16385    0.4 |     19732    0.4  20.9 |     3403    0.4 |
 |   15 |     17976    0.4 |     20978    0.4  19.0 |     2520    0.3 |
 |   16 |     16872    0.4 |     19876    0.4  19.3 |     2656    0.3 |
 |   17 |     18528    0.4 |     21827    0.4  22.4 |     2297    0.3 |
 |   18 |     16090    0.4 |     19508    0.4  21.2 |     3523    0.4 |
 |   19 |     18058    0.4 |     21244    0.4  19.7 |     2755    0.3 |
 |   20 |     16764    0.4 |     19792    0.4  19.4 |     2695    0.3 |
 |   21 |     16696    0.4 |     19805    0.4  19.3 |     2985    0.4 |
 |   22 |     16166    0.4 |     19233    0.4  18.6 |     3223    0.4 |
 |   23 |     18194    0.4 |     21212    0.4  18.9 |     2557    0.3 |
 |   24 |     17598    0.4 |     20650    0.4  19.1 |     2534    0.3 |
 |   25 |     18466    0.4 |     21773    0.4  23.4 |     2180    0.3 |
 |   26 |     16089    0.4 |     19423    0.4  19.9 |     3610    0.4 |
 |   27 |     16639    0.4 |     19798    0.4  19.9 |     2869    0.4 |
 |   28 |     18033    0.4 |     21239    0.4  19.8 |     2739    0.3 |
 |   29 |     17344    0.4 |     20769    0.4  20.7 |     3326    0.4 |
 |   30 |     16621    0.4 |     19930    0.4  19.8 |     3375    0.4 |
 |   31 |     17891    0.4 |     21099    0.4  19.5 |     2825    0.3 |
 |   32 |     18221    0.4 |     21297    0.4  19.8 |     2475    0.3 |
 |   33 |     17222    0.4 |     20210    0.4  18.7 |     2693    0.3 |
 |   34 |     18393    0.4 |     21532    0.4  20.0 |     2538    0.3 |
 |   35 |     16341    0.4 |     19684    0.4  19.4 |     3579    0.4 |
 |   36 |     17311    0.4 |     20739    0.4  21.3 |     3235    0.4 |
 |   37 |     16955    0.4 |     20119    0.4  20.6 |     2778    0.3 |
 |   38 |     17782    0.4 |     20780    0.4  18.4 |     2660    0.3 |
 |   39 |     18468    0.4 |     21870    0.4  23.5 |     2291    0.3 |
 |   40 |     16151    0.4 |     19537    0.4  20.5 |     3496    0.4 |
 |   41 |     18047    0.4 |     21246    0.4  20.0 |     2795    0.3 |
 |   42 |     18310    0.4 |     21507    0.4  20.2 |     2548    0.3 |
 |   43 |     16230    0.4 |     19530    0.4  19.3 |     3627    0.4 |
 |   44 |     17348    0.4 |     20474    0.4  18.9 |     3060    0.4 |
 |   45 |     16291    0.4 |     19764    0.4  21.5 |     3443    0.4 |
 |   46 |     18520    0.4 |     21995    0.4  22.7 |     2678    0.3 |
 |   47 |     17849    0.4 |     20969    0.4  19.6 |     2696    0.3 |
 |   48 |     17052    0.4 |     20158    0.4  20.0 |     2692    0.3 |
 |   49 |     17411    0.4 |     20682    0.4  21.6 |     2605    0.3 |
 |   50 |     16910    0.4 |     20123    0.4  20.3 |     2813    0.3 |
 |   51 |     18343    0.4 |     21822    0.4  23.3 |     2497    0.3 |
 |   52 |     17744    0.4 |     21464    0.4  22.5 |     3398    0.4 |
 |   53 |     18395    0.4 |     21822    0.4  23.3 |     2362    0.3 |
 |   54 |     15119    0.3 |     18603    0.3  20.2 |     3997    0.5 |
 |   55 |     17385    0.4 |     20634    0.4  19.5 |     3207    0.4 |
 |   56 |     18157    0.4 |     21376    0.4  20.2 |     2707    0.3 |
 |   57 |     19311    0.4 |     22636    0.4  22.7 |     2151    0.3 |
 |   58 |     16666    0.4 |     20125    0.4  21.6 |     3407    0.4 |
 |   59 |     18043    0.4 |     21100    0.4  19.0 |     2659    0.3 |
 |   60 |     16611    0.4 |     19662    0.4  18.5 |     2957    0.4 |
 |   61 |     16598    0.4 |     19922    0.4  21.0 |     3197    0.4 |
 |   62 |     16942    0.4 |     20451    0.4  21.4 |     3416    0.4 |
 |   63 |     17262    0.4 |     20160    0.4  18.0 |     2553    0.3 |
 |   64 |     18560    0.4 |     21952    0.4  22.3 |     2493    0.3 |
 |   65 |     17093    0.4 |     20645    0.4  21.7 |     3462    0.4 |
 |   66 |     18404    0.4 |     21359    0.4  18.9 |     2199    0.3 |
 |   67 |     19167    0.4 |     22658    0.4  23.8 |     2259    0.3 |
 |   68 |     16651    0.4 |     19425    0.4  16.0 |     2640    0.3 |
 |   69 |     17698    0.4 |     20913    0.4  20.2 |     2845    0.3 |
 |   70 |     17312    0.4 |     20336    0.4  19.8 |     2540    0.3 |
 |   71 |     17657    0.4 |     20749    0.4  20.6 |     2570    0.3 |
 |   72 |     15682    0.3 |     19129    0.4  20.2 |     3818    0.5 |
 |   73 |     18678    0.4 |     22258    0.4  23.2 |     2606    0.3 |
 |   74 |     17233    0.4 |     20469    0.4  21.4 |     2514    0.3 |
 |   75 |     14890    0.3 |     18226    0.3  18.9 |     4037    0.5 |
 |   76 |     17945    0.4 |     21475    0.4  23.8 |     2559    0.3 |
 |   77 |     16881    0.4 |     20059    0.4  19.1 |     3193    0.4 |
 |   78 |     18607    0.4 |     22272    0.4  24.2 |     2757    0.3 |
 |   79 |     18667    0.4 |     22083    0.4  22.3 |     2460    0.3 |
 |   80 |     16678    0.4 |     19740    0.4  19.5 |     2746    0.3 |
 |   81 |     18501    0.4 |     21859    0.4  22.3 |     2453    0.3 |
 |   82 |     14931    0.3 |     18403    0.3  18.6 |     4354    0.5 |
 |   83 |     18019    0.4 |     21119    0.4  19.2 |     2691    0.3 |
 |   84 |     18040    0.4 |     21122    0.4  19.0 |     2700    0.3 |
 |   85 |     15985    0.4 |     19512    0.4  19.3 |     4099    0.5 |
 |   86 |     17815    0.4 |     20959    0.4  21.1 |     2494    0.3 |
 |   87 |     17591    0.4 |     20653    0.4  18.7 |     2762    0.3 |
 |   88 |     18113    0.4 |     21420    0.4  22.1 |     2482    0.3 |
 |   89 |     19001    0.4 |     22406    0.4  22.8 |     2391    0.3 |
 |   90 |     16882    0.4 |     20233    0.4  20.2 |     3371    0.4 |
 |   91 |     16547    0.4 |     19625    0.4  19.3 |     2829    0.3 |
 |   92 |     17868    0.4 |     20996    0.4  19.9 |     2615    0.3 |
 |   93 |     15715    0.3 |     19291    0.4  21.0 |     3992    0.5 |
 |   94 |     18582    0.4 |     21765    0.4  22.1 |     2166    0.3 |
 |   95 |     16449    0.4 |     19514    0.4  19.1 |     2874    0.4 |
 |   96 |     18083    0.4 |     21375    0.4  20.9 |     2707    0.3 |
 |   97 |     17652    0.4 |     20877    0.4  19.5 |     3090    0.4 |
 |   98 |     16179    0.4 |     19774    0.4  21.7 |     3728    0.5 |
 |   99 |     18089    0.4 |     21301    0.4  19.9 |     2723    0.3 |
 |  100 |     17230    0.4 |     20365    0.4  20.7 |     2598    0.3 |
 |  101 |     17381    0.4 |     20525    0.4  19.6 |     2787    0.3 |
 |  102 |     17499    0.4 |     20680    0.4  19.7 |     2796    0.3 |
 |  103 |     15035    0.3 |     18304    0.3  18.6 |     3958    0.5 |
 |  104 |     19148    0.4 |     22500    0.4  22.9 |     2213    0.3 |
 |  105 |     18253    0.4 |     21624    0.4  21.5 |     2753    0.3 |
 |  106 |     16684    0.4 |     20065    0.4  21.6 |     3286    0.4 |
 |  107 |     17137    0.4 |     20253    0.4  20.4 |     2766    0.3 |
 |  108 |     18114    0.4 |     21209    0.4  19.3 |     2593    0.3 |
 |  109 |     16940    0.4 |     19897    0.4  19.2 |     2534    0.3 |
 |  110 |     17387    0.4 |     20323    0.4  19.7 |     2406    0.3 |
 |  111 |     16861    0.4 |     20162    0.4  21.2 |     3054    0.4 |
 |  112 |     17325    0.4 |     20844    0.4  20.9 |     3524    0.4 |
 |  113 |     17102    0.4 |     20354    0.4  19.3 |     3298    0.4 |
 |  114 |     17253    0.4 |     20739    0.4  22.7 |     2980    0.4 |
 |  115 |     18180    0.4 |     21447    0.4  20.4 |     2784    0.3 |
 |  116 |     17455    0.4 |     20335    0.4  18.3 |     2492    0.3 |
 |  117 |     17259    0.4 |     20518    0.4  20.6 |     2852    0.3 |
 |  118 |     17046    0.4 |     19982    0.4  18.3 |     2611    0.3 |
 |  119 |     17296    0.4 |     21049    0.4  22.6 |     3563    0.4 |
 |  120 |     17894    0.4 |     21282    0.4  22.8 |     2678    0.3 |
 |  121 |     18078    0.4 |     21210    0.4  19.5 |     2667    0.3 |
 |  122 |     18023    0.4 |     21354    0.4  20.5 |     2849    0.3 |
 |  123 |     16082    0.4 |     19466    0.4  19.7 |     3776    0.5 |
 |  124 |     16878    0.4 |     20208    0.4  20.6 |     3229    0.4 |
 |  125 |     17085    0.4 |     20276    0.4  20.9 |     2640    0.3 |
 |  126 |     18610    0.4 |     22055    0.4  24.2 |     2262    0.3 |
 |  127 |     16334    0.4 |     19114    0.4  14.2 |     3211    0.4 |
 |  128 |     16458    0.4 |     19687    0.4  16.3 |     3908    0.5 |
 |  129 |     19150    0.4 |     23419    0.4  27.1 |     3719    0.5 |
 |  130 |     17135    0.4 |     21032    0.4  25.2 |     3929    0.5 |
 |  131 |     17574    0.4 |     21399    0.4  25.1 |     3477    0.4 |
 |  132 |     18679    0.4 |     22570    0.4  24.7 |     3458    0.4 |
 |  133 |     18725    0.4 |     22668    0.4  24.9 |     3522    0.4 |
 |  134 |     17937    0.4 |     21716    0.4  24.9 |     3382    0.4 |
 |  135 |     16200    0.4 |     20507    0.4  26.6 |     4695    0.6 |
 |  136 |     19356    0.4 |     23474    0.4  27.4 |     3068    0.4 |
 |  137 |     17648    0.4 |     21584    0.4  26.1 |     3618    0.4 |
 |  138 |     17740    0.4 |     21926    0.4  25.7 |     4271    0.5 |
 |  139 |     17660    0.4 |     20936    0.4  22.4 |     2881    0.4 |
 |  140 |     17920    0.4 |     20975    0.4  19.1 |     2801    0.3 |
 |  141 |     17972    0.4 |     21912    0.4  24.8 |     3656    0.4 |
 |  142 |     19410    0.4 |     23434    0.4  26.1 |     3259    0.4 |
 |  143 |     19582    0.4 |     23702    0.4  27.0 |     3156    0.4 |
 |  144 |     15961    0.4 |     20144    0.4  25.8 |     4692    0.6 |
 |  145 |     17139    0.4 |     20991    0.4  24.9 |     3641    0.4 |
 |  146 |     18054    0.4 |     21834    0.4  24.2 |     3462    0.4 |
 |  147 |     16728    0.4 |     20863    0.4  26.4 |     4236    0.5 |
 |  148 |     19450    0.4 |     23630    0.4  28.5 |     2931    0.4 |
 |  149 |     18215    0.4 |     22097    0.4  26.0 |     3269    0.4 |
 |  150 |     18196    0.4 |     22036    0.4  25.0 |     3402    0.4 |
 |  151 |     19092    0.4 |     23263    0.4  27.8 |     3334    0.4 |
 |  152 |     16980    0.4 |     21293    0.4  26.1 |     4606    0.6 |
 |  153 |     17380    0.4 |     21509    0.4  24.8 |     4367    0.5 |
 |  154 |     19188    0.4 |     23069    0.4  27.1 |     2745    0.3 |
 |  155 |     17103    0.4 |     20888    0.4  24.4 |     3615    0.4 |
 |  156 |     18046    0.4 |     21909    0.4  26.0 |     3333    0.4 |
 |  157 |     18204    0.4 |     22273    0.4  25.5 |     3900    0.5 |
 |  158 |     16959    0.4 |     20996    0.4  24.8 |     4284    0.5 |
 |  159 |     18888    0.4 |     22822    0.4  25.0 |     3379    0.4 |
 |  160 |     18942    0.4 |     22782    0.4  24.6 |     3343    0.4 |
 |  161 |     18028    0.4 |     21233    0.4  19.6 |     2787    0.3 |
 |  162 |     18049    0.4 |     21096    0.4  19.3 |     2527    0.3 |
 |  163 |     16689    0.4 |     20058    0.4  21.2 |     3347    0.4 |
 |  164 |     17532    0.4 |     20837    0.4  21.5 |     2767    0.3 |
 |  165 |     16938    0.4 |     20194    0.4  21.0 |     2858    0.3 |
 |  166 |     17433    0.4 |     20537    0.4  20.7 |     2457    0.3 |
 |  167 |     18436    0.4 |     21950    0.4  23.8 |     2492    0.3 |
 |  168 |     15597    0.3 |     19062    0.4  20.5 |     3736    0.5 |
 |  169 |     20059    0.4 |     24207    0.4  27.5 |     2966    0.4 |
 |  170 |     15787    0.3 |     19806    0.4  24.7 |     4636    0.6 |
 |  171 |     18351    0.4 |     22554    0.4  26.7 |     3804    0.5 |
 |  172 |     17897    0.4 |     21696    0.4  23.1 |     3535    0.4 |
 |  173 |     16628    0.4 |     19888    0.4  20.3 |     3243    0.4 |
 |  174 |     17057    0.4 |     20464    0.4  22.2 |     2949    0.4 |
 |  175 |     17721    0.4 |     20869    0.4  19.1 |     2781    0.3 |
 |  176 |     18736    0.4 |     22148    0.4  21.8 |     2618    0.3 |
 |  177 |     17481    0.4 |     20771    0.4  20.4 |     2931    0.4 |
 |  178 |     17425    0.4 |     20472    0.4  19.7 |     2541    0.3 |
 |  179 |     15953    0.4 |     19197    0.4  19.6 |     3459    0.4 |
 |  180 |     18995    0.4 |     22566    0.4  24.1 |     2401    0.3 |
 |  181 |     15849    0.4 |     19332    0.4  19.9 |     3906    0.5 |
 |  182 |     19126    0.4 |     22767    0.4  24.0 |     2529    0.3 |
 |  183 |     17442    0.4 |     20514    0.4  18.7 |     2731    0.3 |
 |  184 |     17297    0.4 |     20415    0.4  20.5 |     2616    0.3 |
 |  185 |     17966    0.4 |     21050    0.4  19.1 |     2734    0.3 |
 |  186 |     17696    0.4 |     20611    0.4  18.4 |     2460    0.3 |
 |  187 |     18340    0.4 |     21653    0.4  21.6 |     2639    0.3 |
 |  188 |     16662    0.4 |     20299    0.4  21.4 |     3821    0.5 |
 |  189 |     17742    0.4 |     20814    0.4  20.6 |     2475    0.3 |
 |  190 |     17546    0.4 |     20645    0.4  19.2 |     2733    0.3 |
 |  191 |     18190    0.4 |     21784    0.4  22.5 |     3083    0.4 |
 |  192 |     16350    0.4 |     19818    0.4  19.4 |     3844    0.5 |
 |  193 |     17440    0.4 |     21652    0.4  26.2 |     4275    0.5 |
 |  194 |     19125    0.4 |     23292    0.4  27.3 |     3301    0.4 |
 |  195 |     18135    0.4 |     22002    0.4  25.1 |     3477    0.4 |
 |  196 |     18370    0.4 |     22254    0.4  24.9 |     3492    0.4 |
 |  197 |     18382    0.4 |     22040    0.4  22.9 |     3373    0.4 |
 |  198 |     18672    0.4 |     22458    0.4  24.6 |     3302    0.4 |
 |  199 |     17730    0.4 |     21878    0.4  25.7 |     4142    0.5 |
 |  200 |     17278    0.4 |     21206    0.4  24.6 |     4073    0.5 |
 |  201 |     17345    0.4 |     21528    0.4  26.2 |     4184    0.5 |
 |  202 |     18430    0.4 |     22814    0.4  29.2 |     3517    0.4 |
 |  203 |     18207    0.4 |     21998    0.4  25.2 |     3276    0.4 |
 |  204 |     18161    0.4 |     22052    0.4  24.8 |     3559    0.4 |
 |  205 |     18403    0.4 |     22329    0.4  24.4 |     3600    0.4 |
 |  206 |     18155    0.4 |     21921    0.4  24.8 |     3256    0.4 |
 |  207 |     19061    0.4 |     23176    0.4  26.5 |     3525    0.4 |
 |  208 |     17514    0.4 |     21585    0.4  26.6 |     3810    0.5 |
 |  209 |     17978    0.4 |     21824    0.4  25.8 |     3253    0.4 |
 |  210 |     18119    0.4 |     22085    0.4  25.1 |     3609    0.4 |
 |  211 |     16187    0.4 |     20142    0.4  24.7 |     4334    0.5 |
 |  212 |     18923    0.4 |     23314    0.4  29.6 |     3232    0.4 |
 |  213 |     18877    0.4 |     23149    0.4  26.7 |     3575    0.4 |
 |  214 |     19491    0.4 |     23555    0.4  27.8 |     2833    0.3 |
 |  215 |     17250    0.4 |     21142    0.4  25.0 |     3854    0.5 |
 |  216 |     16912    0.4 |     21076    0.4  25.3 |     4489    0.5 |
 |  217 |     16804    0.4 |     20827    0.4  24.8 |     4340    0.5 |
 |  218 |     19148    0.4 |     23122    0.4  27.0 |     3042    0.4 |
 |  219 |     19006    0.4 |     23143    0.4  26.2 |     3485    0.4 |
 |  220 |     18038    0.4 |     21961    0.4  25.0 |     3532    0.4 |
 |  221 |     17370    0.4 |     21191    0.4  25.0 |     3546    0.4 |
 |  222 |     18413    0.4 |     22195    0.4  24.7 |     3353    0.4 |
 |  223 |     19046    0.4 |     23062    0.4  27.5 |     2974    0.4 |
 |  224 |     17596    0.4 |     21783    0.4  25.6 |     4285    0.5 |
 |  225 |     18571    0.4 |     22297    0.4  23.8 |     3368    0.4 |
 |  226 |     18534    0.4 |     22313    0.4  24.0 |     3441    0.4 |
 |  227 |     17460    0.4 |     21546    0.4  25.7 |     4066    0.5 |
 |  228 |     17816    0.4 |     21773    0.4  24.3 |     4051    0.5 |
 |  229 |     17603    0.4 |     21515    0.4  23.3 |     4043    0.5 |
 |  230 |     18819    0.4 |     22628    0.4  24.2 |     3383    0.4 |
 |  231 |     17137    0.4 |     20936    0.4  22.6 |     4084    0.5 |
 |  232 |     17175    0.4 |     21224    0.4  26.3 |     3956    0.5 |
 |  233 |     18382    0.4 |     22277    0.4  25.8 |     3325    0.4 |
 |  234 |     18428    0.4 |     22283    0.4  25.0 |     3432    0.4 |
 |  235 |     17819    0.4 |     21950    0.4  26.3 |     3890    0.5 |
 |  236 |     17221    0.4 |     21191    0.4  24.8 |     4117    0.5 |
 |  237 |     18785    0.4 |     22670    0.4  24.6 |     3451    0.4 |
 |  238 |     17883    0.4 |     21706    0.4  25.2 |     3450    0.4 |
 |  239 |     18285    0.4 |     22436    0.4  25.6 |     4035    0.5 |
 |  240 |     17839    0.4 |     21911    0.4  26.8 |     3653    0.4 |
 |  241 |     18506    0.4 |     22260    0.4  23.7 |     3411    0.4 |
 |  242 |     18446    0.4 |     22302    0.4  24.9 |     3407    0.4 |
 |  243 |     18239    0.4 |     22183    0.4  24.6 |     3813    0.5 |
 |  244 |     16614    0.4 |     20685    0.4  25.8 |     4276    0.5 |
 |  245 |     18509    0.4 |     22422    0.4  24.8 |     3517    0.4 |
 |  246 |     18980    0.4 |     22859    0.4  25.1 |     3280    0.4 |
 |  247 |     17577    0.4 |     21609    0.4  25.0 |     4099    0.5 |
 |  248 |     17231    0.4 |     21196    0.4  25.0 |     4057    0.5 |
 |  249 |     17934    0.4 |     21721    0.4  25.5 |     3311    0.4 |
 |  250 |     17397    0.4 |     21131    0.4  24.4 |     3435    0.4 |
 |  251 |     16268    0.4 |     20355    0.4  25.6 |     4436    0.5 |
 |  252 |     19422    0.4 |     23718    0.4  28.5 |     3116    0.4 |
 |  253 |     17407    0.4 |     21306    0.4  25.5 |     3594    0.4 |
 |  254 |     18955    0.4 |     22883    0.4  25.0 |     3358    0.4 |
 |  255 |     17010    0.4 |     21165    0.4  26.5 |     4150    0.5 |
 |  256 |     19437    0.4 |     23601    0.4  28.3 |     2971    0.4 |
 +------+------------------+------------------------+-----------------+
 | Min  |     14890    0.3 |     18226    0.3  14.9 |     2151    0.3 |
 |(part)|           (   75)|           (   75   127)|          (   57)|
 +------+------------------+------------------------+-----------------+
 | Max  |     20059    0.4 |     24207    0.4  28.5 |     4695    0.6 |
 |(part)|           (  169)|           (  169   212)|          (  135)|
 +------+------------------+------------------------+-----------------+
 | Ave  |     17649    0.4 |     21188    0.4  22.5 |     3198    0.4 |
 +------+------------------+------------------------+-----------------+
 | Sum  |   4518215  100.0 |   5424143  100.0  22.5 |   818580  100.0 |
 +------+------------------+------------------------+-----------------+

 Partitioning information for domain: TubeDom

        +------------------+------------------------+-----------------+
        |     Elements     |        Vertices        |     Faces       |
 +------+------------------+------------------------+-----------------+
 | Part |   Number     %   |   Number     %   %Ovlp |  Number     %   |
 +------+------------------+------------------------+-----------------+
 | Full |     65210        |    111636              |    89240        |
 +------+------------------+------------------------+-----------------+
 |    1 |       695    0.5 |      1390    0.5  67.6 |      737    0.5 |
 |    2 |       338    0.3 |       651    0.2  29.5 |      398    0.2 |
 |    3 |       660    0.5 |      1324    0.5  64.7 |      688    0.4 |
 |    4 |       362    0.3 |       645    0.2  30.7 |      362    0.2 |
 |    5 |       664    0.5 |      1327    0.5  65.9 |      693    0.4 |
 |    6 |       638    0.5 |      1317    0.5  65.9 |      716    0.4 |
 |    7 |       330    0.3 |       624    0.2  28.8 |      378    0.2 |
 |    8 |       372    0.3 |       660    0.2  30.0 |      372    0.2 |
 |    9 |       646    0.5 |      1283    0.5  65.2 |      675    0.4 |
 |   10 |       563    0.4 |      1182    0.4  62.0 |      654    0.4 |
 |   11 |       385    0.3 |       687    0.3  31.4 |      384    0.2 |
 |   12 |       356    0.3 |       633    0.2  30.2 |      356    0.2 |
 |   13 |       382    0.3 |       681    0.3  31.0 |      381    0.2 |
 |   14 |       374    0.3 |       660    0.2  29.1 |      374    0.2 |
 |   15 |       596    0.5 |      1224    0.5  63.7 |      655    0.4 |
 |   16 |       624    0.5 |      1292    0.5  65.6 |      698    0.4 |
 |   17 |       358    0.3 |       633    0.2  29.4 |      358    0.2 |
 |   18 |       372    0.3 |       654    0.2  28.4 |      372    0.2 |
 |   19 |       600    0.5 |      1253    0.5  64.3 |      685    0.4 |
 |   20 |       691    0.5 |      1418    0.5  68.3 |      762    0.5 |
 |   21 |       344    0.3 |       612    0.2  23.0 |      376    0.2 |
 |   22 |       312    0.2 |       606    0.2  26.7 |      384    0.2 |
 |   23 |       643    0.5 |      1278    0.5  64.8 |      672    0.4 |
 |   24 |       569    0.4 |      1150    0.4  61.1 |      633    0.4 |
 |   25 |       380    0.3 |       678    0.3  31.0 |      380    0.2 |
 |   26 |       382    0.3 |       681    0.3  30.8 |      382    0.2 |
 |   27 |       696    0.5 |      1461    0.5  69.4 |      792    0.5 |
 |   28 |       597    0.5 |      1204    0.5  63.1 |      639    0.4 |
 |   29 |       382    0.3 |       681    0.3  30.8 |      382    0.2 |
 |   30 |       348    0.3 |       646    0.2  31.7 |      372    0.2 |
 |   31 |       639    0.5 |      1327    0.5  65.2 |      719    0.5 |
 |   32 |       579    0.4 |      1148    0.4  61.3 |      605    0.4 |
 |   33 |      1003    0.8 |      2096    0.8  78.8 |     1087    0.7 |
 |   34 |       915    0.7 |      1895    0.7  75.1 |      981    0.6 |
 |   35 |       372    0.3 |       654    0.2  28.4 |      372    0.2 |
 |   36 |       370    0.3 |       657    0.2  30.1 |      370    0.2 |
 |   37 |      1109    0.9 |      2256    0.8  79.5 |     1145    0.7 |
 |   38 |      1045    0.8 |      2160    0.8  78.3 |     1109    0.7 |
 |   39 |       336    0.3 |       654    0.2  31.2 |      396    0.2 |
 |   40 |       368    0.3 |       651    0.2  29.5 |      368    0.2 |
 |   41 |      1026    0.8 |      2089    0.8  77.7 |     1062    0.7 |
 |   42 |       859    0.7 |      1748    0.7  74.6 |      885    0.6 |
 |   43 |       330    0.3 |       633    0.2  29.4 |      386    0.2 |
 |   44 |       362    0.3 |       636    0.2  28.3 |      362    0.2 |
 |   45 |       366    0.3 |       660    0.2  32.7 |      366    0.2 |
 |   46 |       372    0.3 |       651    0.2  27.8 |      371    0.2 |
 |   47 |       923    0.7 |      1938    0.7  75.9 |     1017    0.6 |
 |   48 |      1092    0.8 |      2231    0.8  79.2 |     1132    0.7 |
 |   49 |       658    0.5 |      1382    0.5  67.4 |      754    0.5 |
 |   50 |       679    0.5 |      1355    0.5  65.6 |      715    0.4 |
 |   51 |       528    0.4 |      1083    0.4  57.6 |      573    0.4 |
 |   52 |       360    0.3 |       633    0.2  28.4 |      359    0.2 |
 |   53 |       328    0.3 |       624    0.2  28.8 |      380    0.2 |
 |   54 |       382    0.3 |       720    0.3  35.8 |      402    0.3 |
 |   55 |       372    0.3 |       675    0.3  33.8 |      372    0.2 |
 |   56 |       622    0.5 |      1240    0.5  64.2 |      652    0.4 |
 |   57 |       375    0.3 |       659    0.2  28.7 |      373    0.2 |
 |   58 |       378    0.3 |       669    0.3  29.7 |      377    0.2 |
 |   59 |      1044    0.8 |      2124    0.8  78.2 |     1076    0.7 |
 |   60 |      1241    1.0 |      2575    1.0  82.6 |     1332    0.8 |
 |   61 |       352    0.3 |       663    0.2  29.0 |      400    0.3 |
 |   62 |       354    0.3 |       660    0.2  29.1 |      394    0.2 |
 |   63 |       788    0.6 |      1657    0.6  73.3 |      880    0.6 |
 |   64 |       576    0.4 |      1142    0.4  60.2 |      599    0.4 |
 |   65 |       356    0.3 |       621    0.2  27.1 |      356    0.2 |
 |   66 |       663    0.5 |      1315    0.5  66.0 |      691    0.4 |
 |   67 |       539    0.4 |      1110    0.4  57.8 |      593    0.4 |
 |   68 |      1098    0.9 |      2207    0.8  78.9 |     1174    0.7 |
 |   69 |      1026    0.8 |      2095    0.8  78.4 |     1062    0.7 |
 |   70 |       984    0.8 |      2003    0.8  77.4 |     1012    0.6 |
 |   71 |       362    0.3 |       654    0.2  28.0 |      383    0.2 |
 |   72 |       338    0.3 |       623    0.2  29.4 |      366    0.2 |
 |   73 |       716    0.6 |      1465    0.5  68.2 |      744    0.5 |
 |   74 |      1216    0.9 |      2512    0.9  82.3 |     1244    0.8 |
 |   75 |       362    0.3 |       639    0.2  29.1 |      362    0.2 |
 |   76 |       634    0.5 |      1364    0.5  67.0 |      731    0.5 |
 |   77 |       362    0.3 |       636    0.2  28.5 |      361    0.2 |
 |   78 |       362    0.3 |       645    0.2  30.7 |      362    0.2 |
 |   79 |       765    0.6 |      1598    0.6  72.4 |      820    0.5 |
 |   80 |      1111    0.9 |      2305    0.9  80.4 |     1191    0.7 |
 |   81 |       336    0.3 |       633    0.2  29.4 |      380    0.2 |
 |   82 |       356    0.3 |       651    0.2  29.5 |      380    0.2 |
 |   83 |       997    0.8 |      2022    0.8  77.2 |     1029    0.6 |
 |   84 |       954    0.7 |      1947    0.7  77.0 |      988    0.6 |
 |   85 |       344    0.3 |       666    0.3  33.3 |      392    0.2 |
 |   86 |       364    0.3 |       645    0.2  29.8 |      364    0.2 |
 |   87 |      1061    0.8 |      2176    0.8  78.5 |     1109    0.7 |
 |   88 |       848    0.7 |      1732    0.7  74.4 |      875    0.5 |
 |   89 |       356    0.3 |       630    0.2  29.5 |      356    0.2 |
 |   90 |       370    0.3 |       657    0.2  30.1 |      370    0.2 |
 |   91 |      1234    1.0 |      2548    1.0  81.6 |     1307    0.8 |
 |   92 |       881    0.7 |      1853    0.7  75.6 |      959    0.6 |
 |   93 |       368    0.3 |       654    0.2  30.3 |      368    0.2 |
 |   94 |       376    0.3 |       663    0.2  29.0 |      376    0.2 |
 |   95 |      1221    0.9 |      2493    0.9  81.3 |     1264    0.8 |
 |   96 |       942    0.7 |      1989    0.7  76.9 |     1028    0.6 |
 |   97 |       374    0.3 |       660    0.2  29.1 |      374    0.2 |
 |   98 |       342    0.3 |       660    0.2  29.1 |      406    0.3 |
 |   99 |       903    0.7 |      1844    0.7  75.6 |      934    0.6 |
 |  100 |      1078    0.8 |      2219    0.8  79.0 |     1112    0.7 |
 |  101 |      1070    0.8 |      2236    0.8  80.1 |     1164    0.7 |
 |  102 |      1039    0.8 |      2150    0.8  79.1 |     1096    0.7 |
 |  103 |       374    0.3 |       672    0.3  32.1 |      374    0.2 |
 |  104 |       368    0.3 |       666    0.3  33.3 |      368    0.2 |
 |  105 |       370    0.3 |       654    0.2  29.4 |      370    0.2 |
 |  106 |       322    0.3 |       630    0.2  28.6 |      394    0.2 |
 |  107 |      1125    0.9 |      2289    0.9  79.7 |     1159    0.7 |
 |  108 |       904    0.7 |      1849    0.7  75.5 |      940    0.6 |
 |  109 |       976    0.8 |      1998    0.8  76.9 |     1016    0.6 |
 |  110 |       928    0.7 |      1920    0.7  76.9 |      977    0.6 |
 |  111 |       350    0.3 |       654    0.2  28.4 |      394    0.2 |
 |  112 |       372    0.3 |       657    0.2  29.2 |      372    0.2 |
 |  113 |       334    0.3 |       621    0.2  28.0 |      374    0.2 |
 |  114 |       348    0.3 |       651    0.2  32.1 |      376    0.2 |
 |  115 |       982    0.8 |      2000    0.8  77.8 |     1016    0.6 |
 |  116 |      1023    0.8 |      2101    0.8  78.2 |     1071    0.7 |
 |  117 |       995    0.8 |      2086    0.8  78.8 |     1088    0.7 |
 |  118 |      1211    0.9 |      2467    0.9  82.1 |     1247    0.8 |
 |  119 |       374    0.3 |       687    0.3  31.4 |      394    0.2 |
 |  120 |       358    0.3 |       633    0.2  29.4 |      358    0.2 |
 |  121 |       941    0.7 |      1919    0.7  76.4 |      971    0.6 |
 |  122 |      1028    0.8 |      2132    0.8  78.9 |     1080    0.7 |
 |  123 |       366    0.3 |       645    0.2  28.8 |      366    0.2 |
 |  124 |       338    0.3 |       642    0.2  27.1 |      398    0.2 |
 |  125 |       994    0.8 |      2016    0.8  76.8 |     1028    0.6 |
 |  126 |       384    0.3 |       693    0.3  32.9 |      384    0.2 |
 |  127 |      1059    0.8 |      2165    0.8  78.5 |     1148    0.7 |
 |  128 |       352    0.3 |       675    0.3  31.1 |      404    0.3 |
 |  129 |       222    0.2 |       520    0.2  20.0 |      468    0.3 |
 |  130 |       216    0.2 |       506    0.2  20.6 |      454    0.3 |
 |  131 |       569    0.4 |      1296    0.5  67.9 |      850    0.5 |
 |  132 |       466    0.4 |      1078    0.4  61.6 |      738    0.5 |
 |  133 |       466    0.4 |      1076    0.4  62.1 |      736    0.5 |
 |  134 |       521    0.4 |      1194    0.4  66.0 |      794    0.5 |
 |  135 |       208    0.2 |       482    0.2  16.6 |      442    0.3 |
 |  136 |       211    0.2 |       488    0.2  18.0 |      444    0.3 |
 |  137 |       207    0.2 |       478    0.2  16.7 |      438    0.3 |
 |  138 |       213    0.2 |       492    0.2  17.1 |      450    0.3 |
 |  139 |       391    0.3 |       872    0.3  53.2 |      651    0.4 |
 |  140 |       368    0.3 |       828    0.3  51.7 |      620    0.4 |
 |  141 |       548    0.4 |      1254    0.5  66.8 |      831    0.5 |
 |  142 |       414    0.3 |       966    0.4  56.9 |      680    0.4 |
 |  143 |       215    0.2 |       498    0.2  17.7 |      454    0.3 |
 |  144 |       213    0.2 |       496    0.2  17.7 |      452    0.3 |
 |  145 |       549    0.4 |      1256    0.5  68.5 |      826    0.5 |
 |  146 |       519    0.4 |      1188    0.4  66.3 |      790    0.5 |
 |  147 |       216    0.2 |       498    0.2  16.1 |      458    0.3 |
 |  148 |       208    0.2 |       482    0.2  17.4 |      440    0.3 |
 |  149 |       432    0.3 |      1002    0.4  60.1 |      691    0.4 |
 |  150 |       488    0.4 |      1124    0.4  64.6 |      754    0.5 |
 |  151 |       219    0.2 |       508    0.2  18.1 |      462    0.3 |
 |  152 |       218    0.2 |       510    0.2  19.6 |      460    0.3 |
 |  153 |       209    0.2 |       486    0.2  17.3 |      444    0.3 |
 |  154 |       205    0.2 |       474    0.2  16.9 |      434    0.3 |
 |  155 |       580    0.5 |      1316    0.5  69.9 |      854    0.5 |
 |  156 |       458    0.4 |      1064    0.4  60.7 |      733    0.5 |
 |  157 |       215    0.2 |       496    0.2  16.9 |      454    0.3 |
 |  158 |       208    0.2 |       484    0.2  18.2 |      440    0.3 |
 |  159 |       452    0.4 |      1044    0.4  61.9 |      712    0.4 |
 |  160 |       461    0.4 |      1060    0.4  60.8 |      732    0.5 |
 |  161 |       630    0.5 |      1315    0.5  65.2 |      718    0.4 |
 |  162 |       657    0.5 |      1341    0.5  64.9 |      717    0.4 |
 |  163 |       370    0.3 |       663    0.2  31.7 |      370    0.2 |
 |  164 |       368    0.3 |       648    0.2  28.7 |      368    0.2 |
 |  165 |       689    0.5 |      1438    0.5  67.2 |      782    0.5 |
 |  166 |       598    0.5 |      1200    0.5  63.2 |      626    0.4 |
 |  167 |       374    0.3 |       669    0.3  31.5 |      373    0.2 |
 |  168 |       380    0.3 |       675    0.3  30.2 |      380    0.2 |
 |  169 |       273    0.2 |       658    0.2  36.8 |      519    0.3 |
 |  170 |       209    0.2 |       482    0.2  17.4 |      440    0.3 |
 |  171 |       215    0.2 |       496    0.2  16.1 |      456    0.3 |
 |  172 |       623    0.5 |      1447    0.5  72.8 |      896    0.6 |
 |  173 |       332    0.3 |       636    0.2  29.6 |      386    0.2 |
 |  174 |       372    0.3 |       661    0.2  30.1 |      372    0.2 |
 |  175 |       670    0.5 |      1351    0.5  67.3 |      711    0.4 |
 |  176 |       492    0.4 |      1106    0.4  65.4 |      631    0.4 |
 |  177 |       670    0.5 |      1418    0.5  66.6 |      785    0.5 |
 |  178 |       643    0.5 |      1295    0.5  64.1 |      682    0.4 |
 |  179 |       368    0.3 |       645    0.2  27.9 |      368    0.2 |
 |  180 |       378    0.3 |       678    0.3  31.9 |      378    0.2 |
 |  181 |       376    0.3 |       681    0.3  33.5 |      376    0.2 |
 |  182 |       362    0.3 |       642    0.2  29.9 |      362    0.2 |
 |  183 |       708    0.6 |      1446    0.5  67.6 |      768    0.5 |
 |  184 |       617    0.5 |      1266    0.5  63.0 |      690    0.4 |
 |  185 |       610    0.5 |      1267    0.5  64.2 |      701    0.4 |
 |  186 |       642    0.5 |      1279    0.5  65.1 |      672    0.4 |
 |  187 |       383    0.3 |       674    0.3  29.8 |      377    0.2 |
 |  188 |       376    0.3 |       672    0.3  31.1 |      375    0.2 |
 |  189 |       582    0.5 |      1144    0.4  60.2 |      603    0.4 |
 |  190 |       639    0.5 |      1309    0.5  65.9 |      701    0.4 |
 |  191 |       344    0.3 |       654    0.2  29.4 |      396    0.2 |
 |  192 |       360    0.3 |       645    0.2  31.5 |      360    0.2 |
 |  193 |       212    0.2 |       490    0.2  18.0 |      446    0.3 |
 |  194 |       218    0.2 |       506    0.2  17.4 |      462    0.3 |
 |  195 |       498    0.4 |      1144    0.4  64.3 |      772    0.5 |
 |  196 |       528    0.4 |      1206    0.5  65.5 |      807    0.5 |
 |  197 |       486    0.4 |      1110    0.4  62.7 |      755    0.5 |
 |  198 |       501    0.4 |      1146    0.4  63.9 |      772    0.5 |
 |  199 |       208    0.2 |       478    0.2  16.7 |      438    0.3 |
 |  200 |       208    0.2 |       484    0.2  18.2 |      440    0.3 |
 |  201 |       214    0.2 |       494    0.2  19.4 |      446    0.3 |
 |  202 |       207    0.2 |       488    0.2  19.1 |      442    0.3 |
 |  203 |       447    0.3 |      1038    0.4  62.1 |      707    0.4 |
 |  204 |       533    0.4 |      1224    0.5  67.4 |      810    0.5 |
 |  205 |       540    0.4 |      1234    0.5  68.1 |      814    0.5 |
 |  206 |       525    0.4 |      1200    0.5  67.2 |      785    0.5 |
 |  207 |       215    0.2 |       500    0.2  16.8 |      458    0.3 |
 |  208 |       210    0.2 |       486    0.2  18.9 |      440    0.3 |
 |  209 |       489    0.4 |      1098    0.4  63.9 |      749    0.5 |
 |  210 |       500    0.4 |      1158    0.4  64.3 |      777    0.5 |
 |  211 |       206    0.2 |       476    0.2  16.8 |      436    0.3 |
 |  212 |       303    0.2 |       732    0.3  42.8 |      563    0.4 |
 |  213 |       462    0.4 |      1078    0.4  63.5 |      728    0.5 |
 |  214 |       376    0.3 |       882    0.3  54.9 |      609    0.4 |
 |  215 |       206    0.2 |       474    0.2  16.9 |      434    0.3 |
 |  216 |       216    0.2 |       498    0.2  16.9 |      456    0.3 |
 |  217 |       217    0.2 |       502    0.2  16.7 |      460    0.3 |
 |  218 |       214    0.2 |       496    0.2  16.9 |      454    0.3 |
 |  219 |       430    0.3 |      1016    0.4  60.6 |      699    0.4 |
 |  220 |       583    0.5 |      1320    0.5  68.6 |      861    0.5 |
 |  221 |       565    0.4 |      1280    0.5  67.3 |      844    0.5 |
 |  222 |       493    0.4 |      1130    0.4  63.2 |      766    0.5 |
 |  223 |       212    0.2 |       492    0.2  17.9 |      448    0.3 |
 |  224 |       220    0.2 |       510    0.2  18.0 |      464    0.3 |
 |  225 |       466    0.4 |      1072    0.4  62.9 |      726    0.5 |
 |  226 |       498    0.4 |      1148    0.4  64.5 |      774    0.5 |
 |  227 |       206    0.2 |       480    0.2  17.5 |      438    0.3 |
 |  228 |       210    0.2 |       488    0.2  18.9 |      442    0.3 |
 |  229 |       513    0.4 |      1178    0.4  65.7 |      806    0.5 |
 |  230 |       485    0.4 |      1104    0.4  64.1 |      741    0.5 |
 |  231 |       213    0.2 |       488    0.2  15.6 |      450    0.3 |
 |  232 |       217    0.2 |       502    0.2  16.7 |      460    0.3 |
 |  233 |       458    0.4 |      1054    0.4  60.5 |      730    0.5 |
 |  234 |       483    0.4 |      1112    0.4  62.6 |      758    0.5 |
 |  235 |       205    0.2 |       478    0.2  17.6 |      436    0.3 |
 |  236 |       207    0.2 |       478    0.2  17.6 |      436    0.3 |
 |  237 |       483    0.4 |      1116    0.4  62.7 |      760    0.5 |
 |  238 |       510    0.4 |      1170    0.4  64.4 |      785    0.5 |
 |  239 |       216    0.2 |       512    0.2  18.8 |      464    0.3 |
 |  240 |       208    0.2 |       482    0.2  18.3 |      438    0.3 |
 |  241 |       508    0.4 |      1166    0.4  65.8 |      774    0.5 |
 |  242 |       462    0.4 |      1066    0.4  61.2 |      732    0.5 |
 |  243 |       209    0.2 |       486    0.2  19.1 |      438    0.3 |
 |  244 |       216    0.2 |       502    0.2  17.5 |      458    0.3 |
 |  245 |       506    0.4 |      1170    0.4  66.0 |      778    0.5 |
 |  246 |       445    0.3 |      1026    0.4  61.4 |      697    0.4 |
 |  247 |       206    0.2 |       480    0.2  17.5 |      438    0.3 |
 |  248 |       213    0.2 |       492    0.2  17.1 |      450    0.3 |
 |  249 |       501    0.4 |      1144    0.4  63.5 |      773    0.5 |
 |  250 |       533    0.4 |      1214    0.5  67.2 |      804    0.5 |
 |  251 |       210    0.2 |       488    0.2  19.3 |      441    0.3 |
 |  252 |       210    0.2 |       512    0.2  23.0 |      453    0.3 |
 |  253 |       554    0.4 |      1268    0.5  67.8 |      835    0.5 |
 |  254 |       435    0.3 |      1016    0.4  61.0 |      698    0.4 |
 |  255 |       211    0.2 |       490    0.2  18.8 |      444    0.3 |
 |  256 |       218    0.2 |       502    0.2  16.7 |      460    0.3 |
 +------+------------------+------------------------+-----------------+
 | Min  |       205    0.2 |       474    0.2  16.0 |      356    0.2 |
 |(part)|           (  154)|           (  154   231)|          (   12)|
 +------+------------------+------------------------+-----------------+
 | Max  |      1241    1.0 |      2575    1.0  82.6 |     1332    0.8 |
 |(part)|           (   60)|           (   60    60)|          (   60)|
 +------+------------------+------------------------+-----------------+
 | Ave  |       503    0.4 |      1041    0.4  58.1 |      623    0.4 |
 +------+------------------+------------------------+-----------------+
 | Sum  |    128698  100.0 |    266393  100.0  58.1 |   159615  100.0 |
 +------+------------------+------------------------+-----------------+

 +--------------------------------------------------------------------+
 |                 Partitioning CPU-Time Requirements                 |
 +--------------------------------------------------------------------+
  
 - Preparations                                       3.956E+00 seconds
 - Low-level mesh partitioning                        4.767E+00 seconds
 - Gather zone interface information                  2.320E+01 seconds
 - Global partitioning information                    3.280E-01 seconds
 - Element and face partitioning information          4.690E-01 seconds
 - Vertex partitioning information                    1.953E+00 seconds
 - Partitioning information compression               4.700E-02 seconds
 - Summed CPU-time for mesh partitioning              3.590E+01 seconds

 +--------------------------------------------------------------------+
 |                   Job Information at End of Run                    |
 +--------------------------------------------------------------------+

 +---------------------------+------+----------+----------+-----------+
 | Host                      | Mesh |     Job Finished    |    CPU    |
 |                           | Part | DD/MM/YY | hh:mm:ss |  seconds  |
 +---------------------------+------+----------+----------+-----------+
 | RD000D3A21E6D9            |    1 | 26/05/15 | 19:53:04 | 7.338E+01 |
 +---------------------------+------+----------+----------+-----------+

 Total wall clock time: 7.270E+01 seconds
             or: (          0:         0:         1:    12.699 )
                 (       Days:     Hours:   Minutes:   Seconds )


 +--------------------------------------------------------------------+
 |                                                                    |
 |                               Solver                               |
 |                                                                    |
 +--------------------------------------------------------------------+


 +--------------------------------------------------------------------+
 |                An error has occurred in cfx5solve:                 |
 |                                                                    |
 | The ANSYS CFX solver could not be started, or exited with return   |
 | code 255: .  No results file has been created.                     |
 +--------------------------------------------------------------------+

End of solution stage.

This run of the ANSYS CFX Solver has finished.
