 This run of the CFX-15.0.7 Solver started at 07:34:04 on 29 May 2015 by
 user MpiUser on RD000D3A21FAED (intel_xeon64.sse2_winnt) using the
 command:
 
  "\\hsransys.file.core.windows.net\main\apps\ANSYS Inc\v150\CFX\bin\perllib\cfx5solve.pl"
    -def pipe01.def -chdir
    \\10.10.13.6\C\Resources\directory\3301acebc8f4463d990a819988261bb5.HSR.AzureEE.HpcWorkerRole.jobdata\job-5
    -start-method MSMPI2 -part 256
 
 Point Releases and Patches installed:
 
  ANSYS, Inc. Products 15.0.7
  ANSYS Mechanical Products 15.0.7
  ANSYS Autodyn 15.0.7
  ANSYS LS-DYNA 15.0.7
  ANSYS CFX (includes ANSYS CFD-Post) 15.0.7
  ANSYS Fluent (includes ANSYS CFD-Post) 15.0.7
  ANSYS TurboGrid 15.0.7
  ANSYS Polyflow (includes ANSYS CFD-Post) 15.0.7
  ANSYS Aqwa 15.0.7
  ANSYS ICEM CFD 15.0.7
  ANSYS Icepak (includes ANSYS CFD-Post) 15.0.7
  Catia, Version 6 15.0.7
  ANSYS, Inc. License Manager 15.0.7
 
 Setting up CFX Solver run ...
 

 +--------------------------------------------------------------------+
 |                              Warning!                              |
 |                                                                    |
 | The working directory is a UNC path, but the Windows command shell |
 | is currently not configured to support UNC paths. This may cause   |
 | failure of the CFX Solver.                                         |
 |                                                                    |
 | Command shell support for UNC paths can be enabled by setting the  |
 | Windows registry key DisableUNCCheck.                              |
 +--------------------------------------------------------------------+


 +--------------------------------------------------------------------+
 |                                                                    |
 |                    CFX Command Language Upgrade                    |
 |                                                                    |
 +--------------------------------------------------------------------+

 Added /SIMULATION CONTROL/EXECUTION CONTROL/EXECUTABLE SELECTION/Double
 Precision = Off.
 

 +--------------------------------------------------------------------+
 |                                                                    |
 |                    CFX Command Language for Run                    |
 |                                                                    |
 +--------------------------------------------------------------------+

 LIBRARY:
   MATERIAL: Air at 25 C
     Material Description = Air at 25 C and 1 atm (dry)
     Material Group = Air Data, Constant Property Gases
     Option = Pure Substance
     Thermodynamic State = Gas
     PROPERTIES:
       Option = General Material
       EQUATION OF STATE:
         Density = 1.185 [kg m^-3]
         Molar Mass = 28.96 [kg kmol^-1]
         Option = Value
       END
       SPECIFIC HEAT CAPACITY:
         Option = Value
         Specific Heat Capacity = 1.0044E+03 [J kg^-1 K^-1]
         Specific Heat Type = Constant Pressure
       END
       REFERENCE STATE:
         Option = Specified Point
         Reference Pressure = 1 [atm]
         Reference Specific Enthalpy = 0. [J/kg]
         Reference Specific Entropy = 0. [J/kg/K]
         Reference Temperature = 25 [C]
       END
       DYNAMIC VISCOSITY:
         Dynamic Viscosity = 1.831E-05 [kg m^-1 s^-1]
         Option = Value
       END
       THERMAL CONDUCTIVITY:
         Option = Value
         Thermal Conductivity = 2.61E-02 [W m^-1 K^-1]
       END
       ABSORPTION COEFFICIENT:
         Absorption Coefficient = 0.01 [m^-1]
         Option = Value
       END
       SCATTERING COEFFICIENT:
         Option = Value
         Scattering Coefficient = 0.0 [m^-1]
       END
       REFRACTIVE INDEX:
         Option = Value
         Refractive Index = 1.0 [m m^-1]
       END
       THERMAL EXPANSIVITY:
         Option = Value
         Thermal Expansivity = 0.003356 [K^-1]
       END
     END
   END
 END
 FLOW: Flow Analysis 1
   SOLUTION UNITS:
     Angle Units = [rad]
     Length Units = [m]
     Mass Units = [kg]
     Solid Angle Units = [sr]
     Temperature Units = [K]
     Time Units = [s]
   END
   ANALYSIS TYPE:
     Option = Steady State
     EXTERNAL SOLVER COUPLING:
       Option = None
     END
   END
   DOMAIN: Default Domain
     Coord Frame = Coord 0
     Domain Type = Fluid
     Location = B16
     BOUNDARY: Default Domain Default
       Boundary Type = WALL
       Location = F17.16,F18.16,F19.16
       BOUNDARY CONDITIONS:
         MASS AND MOMENTUM:
           Option = No Slip Wall
         END
         WALL ROUGHNESS:
           Option = Smooth Wall
         END
       END
     END
     BOUNDARY: Inlet
       Boundary Type = INLET
       Location = Inlet
       BOUNDARY CONDITIONS:
         FLOW REGIME:
           Option = Subsonic
         END
         MASS AND MOMENTUM:
           Normal Speed = 0.01 [m s^-1]
           Option = Normal Speed
         END
         TURBULENCE:
           Option = Medium Intensity and Eddy Viscosity Ratio
         END
       END
     END
     BOUNDARY: Outlet
       Boundary Type = OUTLET
       Location = Outlet
       BOUNDARY CONDITIONS:
         FLOW REGIME:
           Option = Subsonic
         END
         MASS AND MOMENTUM:
           Option = Average Static Pressure
           Pressure Profile Blend = 0.05
           Relative Pressure = 0 [Pa]
         END
         PRESSURE AVERAGING:
           Option = Average Over Whole Outlet
         END
       END
     END
     BOUNDARY: Symmetry
       Boundary Type = SYMMETRY
       Location = Symmetry
     END
     DOMAIN MODELS:
       BUOYANCY MODEL:
         Option = Non Buoyant
       END
       DOMAIN MOTION:
         Option = Stationary
       END
       MESH DEFORMATION:
         Option = None
       END
       REFERENCE PRESSURE:
         Reference Pressure = 1 [atm]
       END
     END
     FLUID DEFINITION: Fluid 1
       Material = Air at 25 C
       Option = Material Library
       MORPHOLOGY:
         Option = Continuous Fluid
       END
     END
     FLUID MODELS:
       COMBUSTION MODEL:
         Option = None
       END
       HEAT TRANSFER MODEL:
         Fluid Temperature = 25 [C]
         Option = Isothermal
       END
       THERMAL RADIATION MODEL:
         Option = None
       END
       TURBULENCE MODEL:
         Option = k epsilon
       END
       TURBULENT WALL FUNCTIONS:
         Option = Scalable
       END
     END
   END
   OUTPUT CONTROL:
     RESULTS:
       File Compression Level = Default
       Option = Standard
     END
   END
   SOLVER CONTROL:
     Turbulence Numerics = First Order
     ADVECTION SCHEME:
       Option = High Resolution
     END
     CONVERGENCE CONTROL:
       Length Scale Option = Conservative
       Maximum Number of Iterations = 100
       Minimum Number of Iterations = 1
       Timescale Control = Auto Timescale
       Timescale Factor = 1.0
     END
     CONVERGENCE CRITERIA:
       Residual Target = 1.E-4
       Residual Type = RMS
     END
     DYNAMIC MODEL CONTROL:
       Global Dynamic Model Control = On
     END
   END
 END
 COMMAND FILE:
   Version = 15.0
   Results Version = 15.0.7
 END
 SIMULATION CONTROL:
   EXECUTION CONTROL:
     EXECUTABLE SELECTION:
       Double Precision = Off
     END
     PARALLEL HOST LIBRARY:
       HOST DEFINITION: rd000d3a21faed
         Host Architecture String = winnt-amd64
         Installation Root = \\hsransys.file.core.windows.net\main\apps\ANSYS \
           Inc\v%v\CFX
       END
     END
     PARTITIONER STEP CONTROL:
       PARTITIONING TYPE:
         Option = MeTiS
         MeTiS Type = k-way
         Partition Size Rule = Automatic
         Partition Weight Factors = 0.00391, 0.00391, 0.00391, 0.00391, \
           0.00391, 0.00391, 0.00391, 0.00391, 0.00391, 0.00391, 0.00391, \
           0.00391, 0.00391, 0.00391, 0.00391, 0.00391, 0.00391, 0.00391, \
           0.00391, 0.00391, 0.00391, 0.00391, 0.00391, 0.00391, 0.00391, \
           0.00391, 0.00391, 0.00391, 0.00391, 0.00391, 0.00391, 0.00391, \
           0.00391, 0.00391, 0.00391, 0.00391, 0.00391, 0.00391, 0.00391, \
           0.00391, 0.00391, 0.00391, 0.00391, 0.00391, 0.00391, 0.00391, \
           0.00391, 0.00391, 0.00391, 0.00391, 0.00391, 0.00391, 0.00391, \
           0.00391, 0.00391, 0.00391, 0.00391, 0.00391, 0.00391, 0.00391, \
           0.00391, 0.00391, 0.00391, 0.00391, 0.00391, 0.00391, 0.00391, \
           0.00391, 0.00391, 0.00391, 0.00391, 0.00391, 0.00391, 0.00391, \
           0.00391, 0.00391, 0.00391, 0.00391, 0.00391, 0.00391, 0.00391, \
           0.00391, 0.00391, 0.00391, 0.00391, 0.00391, 0.00391, 0.00391, \
           0.00391, 0.00391, 0.00391, 0.00391, 0.00391, 0.00391, 0.00391, \
           0.00391, 0.00391, 0.00391, 0.00391, 0.00391, 0.00391, 0.00391, \
           0.00391, 0.00391, 0.00391, 0.00391, 0.00391, 0.00391, 0.00391, \
           0.00391, 0.00391, 0.00391, 0.00391, 0.00391, 0.00391, 0.00391, \
           0.00391, 0.00391, 0.00391, 0.00391, 0.00391, 0.00391, 0.00391, \
           0.00391, 0.00391, 0.00391, 0.00391, 0.00391, 0.00391, 0.00391, \
           0.00391, 0.00391, 0.00391, 0.00391, 0.00391, 0.00391, 0.00391, \
           0.00391, 0.00391, 0.00391, 0.00391, 0.00391, 0.00391, 0.00391, \
           0.00391, 0.00391, 0.00391, 0.00391, 0.00391, 0.00391, 0.00391, \
           0.00391, 0.00391, 0.00391, 0.00391, 0.00391, 0.00391, 0.00391, \
           0.00391, 0.00391, 0.00391, 0.00391, 0.00391, 0.00391, 0.00391, \
           0.00391, 0.00391, 0.00391, 0.00391, 0.00391, 0.00391, 0.00391, \
           0.00391, 0.00391, 0.00391, 0.00391, 0.00391, 0.00391, 0.00391, \
           0.00391, 0.00391, 0.00391, 0.00391, 0.00391, 0.00391, 0.00391, \
           0.00391, 0.00391, 0.00391, 0.00391, 0.00391, 0.00391, 0.00391, \
           0.00391, 0.00391, 0.00391, 0.00391, 0.00391, 0.00391, 0.00391, \
           0.00391, 0.00391, 0.00391, 0.00391, 0.00391, 0.00391, 0.00391, \
           0.00391, 0.00391, 0.00391, 0.00391, 0.00391, 0.00391, 0.00391, \
           0.00391, 0.00391, 0.00391, 0.00391, 0.00391, 0.00391, 0.00391, \
           0.00391, 0.00391, 0.00391, 0.00391, 0.00391, 0.00391, 0.00391, \
           0.00391, 0.00391, 0.00391, 0.00391, 0.00391, 0.00391, 0.00391, \
           0.00391, 0.00391, 0.00391, 0.00391, 0.00391, 0.00391, 0.00391, \
           0.00391, 0.00391, 0.00391, 0.00391, 0.00391, 0.00391, 0.00391, \
           0.00391, 0.00391, 0.00391, 0.00391, 0.00391, 0.00391, 0.00391
       END
     END
     RUN DEFINITION:
       Solver Input File = \
         \\10.10.13.6\C\Resources\directory\3301acebc8f4463d990a819988261bb5.H\
         SR.AzureEE.HpcWorkerRole.jobdata\job-5\pipe01.def
       Run Mode = Full
     END
     SOLVER STEP CONTROL:
       PARALLEL ENVIRONMENT:
         Start Method = MSMPI2
         Number of Processes = 256
         Parallel Host List = rd000d3a21faed*256
       END
     END
   END
 END
 

 +--------------------------------------------------------------------+
 |                                                                    |
 |                            Partitioning                            |
 |                                                                    |
 +--------------------------------------------------------------------+




 +--------------------------------------------------------------------+
 |                                                                    |
 |                 ANSYS(R) CFX(R) Partitioner 15.0.7                 |
 |                                                                    |
 | Version 2014.04.10-23.00-131675     Thu Apr 10 23:23:37 GMTDT 2014 |
 |                                                                    |
 |                        Executable Attributes                       |
 |                                                                    |
 |          single-64bit-int32-supfort-optimised-noprof-lcomp         |
 |                                                                    |
 | (C) 2014 ANSYS, Inc.                                               |
 |                                                                    |
 | All rights reserved. Unauthorized use, distribution or duplication |
 | is prohibited. This product is subject to U.S. laws governing      |
 | export and re-export. For full Legal Notice, see documentation.    |
 +--------------------------------------------------------------------+




 +--------------------------------------------------------------------+
 |                  Job Information at Start of Run                   |
 +--------------------------------------------------------------------+

 Run mode:       partitioning run

 +------------------------------+------+--------+----------+----------+
 | Host                         | Mesh |  PID   |     Job Started     |
 |                              | Part |        | DD/MM/YY | hh:mm:ss |
 +------------------------------+------+--------+----------+----------+
 | RD000D3A21FAED               |    1 |   1328 | 29/05/15 | 07:34:12 |
 +------------------------------+------+--------+----------+----------+


 +--------------------------------------------------------------------+
 |        Memory Allocated for Run  (Actual usage may be less)        |
 +--------------------------------------------------------------------+

           | Real       | Integer    | Character | Logical  | Double
 ----------+------------+------------+-----------+----------+----------
 Mwords    |       1.05 |       1.55 |      3.26 |     0.12 |     0.07
 Mbytes    |       4.00 |       5.93 |      3.11 |     0.46 |     0.52
 ----------+------------+------------+-----------+----------+----------


 +--------------------------------------------------------------------+
 |                  Host Memory Information (Mbytes)                  |
 +--------------------------------------------------------------------+
 |          Host           |     System     |   Allocated    |   %    |
 +-------------------------+----------------+----------------+--------+
 | RD000D3A21FAED          |     57343.55   |        14.02   |   0.02 |
 +-------------------------+----------------+----------------+--------+

 +--------------------------------------------------------------------+
 |                          Mesh Statistics                           |
 +--------------------------------------------------------------------+

 Domain Name : Default Domain

     Total Number of Nodes                                =        8478

     Total Number of Elements                             =        5634
         Total Number of Hexahedrons                      =        5634

     Total Number of Faces                                =        5044

 +--------------------------------------------------------------------+
 |                     Vertex Based Partitioning                      |
 +--------------------------------------------------------------------+

 Partitioning of domain: Default Domain

 - Partitioning tool:       MeTiS multilevel k-way algorithm
 - Number of partitions:           256
 - Number of graph-nodes:         8478
 - Number of graph-edges:        44534

 +--------------------------------------------------------------------+
 |                      Partitioning Information                      |
 +--------------------------------------------------------------------+

 Partitioning information for domain: Default Domain

        +------------------+------------------------+-----------------+
        |     Elements     |        Vertices        |     Faces       |
 +------+------------------+------------------------+-----------------+
 | Part |   Number     %   |   Number     %   %Ovlp |  Number     %   |
 +------+------------------+------------------------+-----------------+
 | Full |      5634        |      8478              |     5044        |
 +------+------------------+------------------------+-----------------+
 |    1 |        36    0.3 |        84    0.4  61.9 |       33    0.4 |
 |    2 |        42    0.4 |        93    0.4  64.5 |       32    0.4 |
 |    3 |        40    0.4 |        80    0.3  58.8 |       24    0.3 |
 |    4 |        34    0.3 |        83    0.4  59.0 |       37    0.5 |
 |    5 |        40    0.4 |        80    0.3  58.8 |       24    0.3 |
 |    6 |        42    0.4 |        88    0.4  63.6 |       30    0.4 |
 |    7 |        38    0.4 |        92    0.4  63.0 |       36    0.4 |
 |    8 |        40    0.4 |        90    0.4  62.2 |       35    0.4 |
 |    9 |        47    0.4 |        97    0.4  64.9 |       24    0.3 |
 |   10 |        38    0.4 |        87    0.4  60.9 |       34    0.4 |
 |   11 |        33    0.3 |        79    0.3  59.5 |       34    0.4 |
 |   12 |        51    0.5 |       114    0.5  70.2 |       33    0.4 |
 |   13 |        43    0.4 |        96    0.4  64.6 |       33    0.4 |
 |   14 |        44    0.4 |        95    0.4  64.2 |       31    0.4 |
 |   15 |        41    0.4 |        90    0.4  63.3 |       32    0.4 |
 |   16 |        40    0.4 |        89    0.4  62.9 |       33    0.4 |
 |   17 |        46    0.4 |        92    0.4  63.0 |       24    0.3 |
 |   18 |        40    0.4 |        80    0.3  58.8 |       24    0.3 |
 |   19 |        38    0.4 |        87    0.4  62.1 |       33    0.4 |
 |   20 |        43    0.4 |       103    0.4  68.9 |       34    0.4 |
 |   21 |        36    0.3 |        84    0.4  59.5 |       36    0.4 |
 |   22 |        34    0.3 |        84    0.4  61.9 |       36    0.4 |
 |   23 |        44    0.4 |        93    0.4  64.5 |       27    0.3 |
 |   24 |        49    0.5 |       107    0.5  70.1 |       32    0.4 |
 |   25 |        27    0.3 |        67    0.3  52.2 |       34    0.4 |
 |   26 |        30    0.3 |        64    0.3  50.0 |       27    0.3 |
 |   27 |        29    0.3 |        73    0.3  56.2 |       35    0.4 |
 |   28 |        43    0.4 |        94    0.4  66.0 |       30    0.4 |
 |   29 |        44    0.4 |        90    0.4  62.2 |       25    0.3 |
 |   30 |        40    0.4 |        80    0.3  58.8 |       24    0.3 |
 |   31 |        40    0.4 |        93    0.4  63.4 |       35    0.4 |
 |   32 |        37    0.3 |        89    0.4  64.0 |       36    0.4 |
 |   33 |        38    0.4 |        87    0.4  60.9 |       34    0.4 |
 |   34 |        46    0.4 |       102    0.4  68.6 |       27    0.3 |
 |   35 |        41    0.4 |        91    0.4  63.7 |       31    0.4 |
 |   36 |        45    0.4 |        96    0.4  64.6 |       31    0.4 |
 |   37 |        42    0.4 |        98    0.4  67.3 |       34    0.4 |
 |   38 |        43    0.4 |        94    0.4  63.8 |       33    0.4 |
 |   39 |        36    0.3 |        84    0.4  59.5 |       35    0.4 |
 |   40 |        48    0.5 |       102    0.4  66.7 |       26    0.3 |
 |   41 |        40    0.4 |        80    0.3  58.8 |       24    0.3 |
 |   42 |        41    0.4 |        95    0.4  65.3 |       37    0.5 |
 |   43 |        42    0.4 |        89    0.4  61.8 |       33    0.4 |
 |   44 |        34    0.3 |        83    0.4  59.0 |       37    0.5 |
 |   45 |        42    0.4 |        93    0.4  63.4 |       32    0.4 |
 |   46 |        42    0.4 |        86    0.4  62.8 |       23    0.3 |
 |   47 |        36    0.3 |        84    0.4  61.9 |       33    0.4 |
 |   48 |        43    0.4 |        93    0.4  63.4 |       32    0.4 |
 |   49 |        39    0.4 |        88    0.4  62.5 |       33    0.4 |
 |   50 |        44    0.4 |        94    0.4  63.8 |       30    0.4 |
 |   51 |        51    0.5 |       111    0.5  71.2 |       25    0.3 |
 |   52 |        42    0.4 |        96    0.4  66.7 |       33    0.4 |
 |   53 |        40    0.4 |        90    0.4  62.2 |       33    0.4 |
 |   54 |        36    0.3 |        84    0.4  59.5 |       35    0.4 |
 |   55 |        47    0.4 |       105    0.4  69.5 |       28    0.3 |
 |   56 |        52    0.5 |       111    0.5  71.2 |       23    0.3 |
 |   57 |        38    0.4 |        87    0.4  60.9 |       34    0.4 |
 |   58 |        43    0.4 |        88    0.4  61.4 |       25    0.3 |
 |   59 |        37    0.3 |        86    0.4  61.6 |       35    0.4 |
 |   60 |        40    0.4 |        90    0.4  64.4 |       32    0.4 |
 |   61 |        38    0.4 |        91    0.4  62.6 |       38    0.5 |
 |   62 |        40    0.4 |        94    0.4  66.0 |       34    0.4 |
 |   63 |        36    0.3 |        84    0.4  61.9 |       33    0.4 |
 |   64 |        50    0.5 |       105    0.4  69.5 |       22    0.3 |
 |   65 |        48    0.5 |        98    0.4  65.3 |       24    0.3 |
 |   66 |        39    0.4 |        91    0.4  63.7 |       34    0.4 |
 |   67 |        37    0.3 |        86    0.4  61.6 |       34    0.4 |
 |   68 |        47    0.4 |       103    0.4  68.0 |       30    0.4 |
 |   69 |        45    0.4 |        95    0.4  66.3 |       26    0.3 |
 |   70 |        38    0.4 |        87    0.4  60.9 |       34    0.4 |
 |   71 |        36    0.3 |        86    0.4  61.6 |       35    0.4 |
 |   72 |        49    0.5 |       105    0.4  69.5 |       29    0.4 |
 |   73 |        48    0.5 |        99    0.4  65.7 |       26    0.3 |
 |   74 |        34    0.3 |        81    0.3  59.3 |       35    0.4 |
 |   75 |        41    0.4 |        91    0.4  62.6 |       33    0.4 |
 |   76 |        43    0.4 |        94    0.4  63.8 |       34    0.4 |
 |   77 |        43    0.4 |        97    0.4  64.9 |       32    0.4 |
 |   78 |        55    0.5 |       125    0.5  72.8 |       34    0.4 |
 |   79 |        36    0.3 |        84    0.4  59.5 |       35    0.4 |
 |   80 |        50    0.5 |       104    0.4  67.3 |       23    0.3 |
 |   81 |        35    0.3 |        86    0.4  60.5 |       38    0.5 |
 |   82 |        52    0.5 |       116    0.5  72.4 |       28    0.3 |
 |   83 |        48    0.5 |        99    0.4  65.7 |       28    0.3 |
 |   84 |        35    0.3 |        85    0.4  61.2 |       36    0.4 |
 |   85 |        38    0.4 |        87    0.4  60.9 |       34    0.4 |
 |   86 |        43    0.4 |        88    0.4  61.4 |       27    0.3 |
 |   87 |        36    0.3 |        92    0.4  65.2 |       38    0.5 |
 |   88 |        48    0.5 |       104    0.4  69.2 |       31    0.4 |
 |   89 |        35    0.3 |        89    0.4  61.8 |       39    0.5 |
 |   90 |        40    0.4 |        98    0.4  67.3 |       38    0.5 |
 |   91 |        54    0.5 |       123    0.5  74.0 |       32    0.4 |
 |   92 |        47    0.4 |       102    0.4  67.6 |       27    0.3 |
 |   93 |        43    0.4 |        98    0.4  66.3 |       33    0.4 |
 |   94 |        36    0.3 |        84    0.4  59.5 |       36    0.4 |
 |   95 |        44    0.4 |        89    0.4  61.8 |       25    0.3 |
 |   96 |        44    0.4 |        90    0.4  64.4 |       24    0.3 |
 |   97 |        38    0.4 |        87    0.4  62.1 |       33    0.4 |
 |   98 |        38    0.4 |        92    0.4  65.2 |       36    0.4 |
 |   99 |        46    0.4 |        92    0.4  63.0 |       25    0.3 |
 |  100 |        38    0.4 |        87    0.4  60.9 |       34    0.4 |
 |  101 |        47    0.4 |       102    0.4  67.6 |       31    0.4 |
 |  102 |        39    0.4 |        90    0.4  63.3 |       34    0.4 |
 |  103 |        44    0.4 |        94    0.4  63.8 |       31    0.4 |
 |  104 |        41    0.4 |        92    0.4  63.0 |       34    0.4 |
 |  105 |        40    0.4 |        89    0.4  64.0 |       32    0.4 |
 |  106 |        36    0.3 |        84    0.4  61.9 |       33    0.4 |
 |  107 |        43    0.4 |        88    0.4  62.5 |       25    0.3 |
 |  108 |        38    0.4 |        86    0.4  61.6 |       33    0.4 |
 |  109 |        40    0.4 |        93    0.4  63.4 |       35    0.4 |
 |  110 |        45    0.4 |        97    0.4  64.9 |       32    0.4 |
 |  111 |        55    0.5 |       117    0.5  70.9 |       26    0.3 |
 |  112 |        34    0.3 |        81    0.3  59.3 |       35    0.4 |
 |  113 |        41    0.4 |        92    0.4  63.0 |       34    0.4 |
 |  114 |        44    0.4 |        94    0.4  66.0 |       30    0.4 |
 |  115 |        31    0.3 |        80    0.3  60.0 |       38    0.5 |
 |  116 |        54    0.5 |       112    0.5  69.6 |       24    0.3 |
 |  117 |        40    0.4 |        80    0.3  58.8 |       24    0.3 |
 |  118 |        43    0.4 |        88    0.4  63.6 |       23    0.3 |
 |  119 |        38    0.4 |        90    0.4  64.4 |       34    0.4 |
 |  120 |        38    0.4 |        87    0.4  60.9 |       34    0.4 |
 |  121 |        38    0.4 |        87    0.4  60.9 |       34    0.4 |
 |  122 |        40    0.4 |        93    0.4  63.4 |       38    0.5 |
 |  123 |        44    0.4 |        89    0.4  64.0 |       22    0.3 |
 |  124 |        36    0.3 |        88    0.4  63.6 |       36    0.4 |
 |  125 |        38    0.4 |        87    0.4  60.9 |       35    0.4 |
 |  126 |        42    0.4 |        86    0.4  62.8 |       24    0.3 |
 |  127 |        37    0.3 |        88    0.4  61.4 |       36    0.4 |
 |  128 |        46    0.4 |        97    0.4  67.0 |       28    0.3 |
 |  129 |        44    0.4 |        89    0.4  61.8 |       26    0.3 |
 |  130 |        35    0.3 |        86    0.4  60.5 |       38    0.5 |
 |  131 |        43    0.4 |       101    0.4  68.3 |       33    0.4 |
 |  132 |        42    0.4 |        93    0.4  63.4 |       34    0.4 |
 |  133 |        42    0.4 |        93    0.4  63.4 |       32    0.4 |
 |  134 |        44    0.4 |        95    0.4  66.3 |       29    0.4 |
 |  135 |        34    0.3 |        84    0.4  61.9 |       36    0.4 |
 |  136 |        46    0.4 |        97    0.4  66.0 |       26    0.3 |
 |  137 |        53    0.5 |       110    0.5  69.1 |       23    0.3 |
 |  138 |        36    0.3 |        91    0.4  64.8 |       38    0.5 |
 |  139 |        38    0.4 |        90    0.4  64.4 |       35    0.4 |
 |  140 |        45    0.4 |        94    0.4  66.0 |       24    0.3 |
 |  141 |        39    0.4 |        95    0.4  66.3 |       37    0.5 |
 |  142 |        38    0.4 |        87    0.4  62.1 |       33    0.4 |
 |  143 |        42    0.4 |        88    0.4  63.6 |       30    0.4 |
 |  144 |        40    0.4 |        80    0.3  60.0 |       23    0.3 |
 |  145 |        39    0.4 |        91    0.4  62.6 |       36    0.4 |
 |  146 |        31    0.3 |        73    0.3  53.4 |       36    0.4 |
 |  147 |        41    0.4 |        86    0.4  60.5 |       28    0.3 |
 |  148 |        31    0.3 |        76    0.3  56.6 |       35    0.4 |
 |  149 |        40    0.4 |        93    0.4  63.4 |       37    0.5 |
 |  150 |        41    0.4 |        88    0.4  63.6 |       26    0.3 |
 |  151 |        42    0.4 |        93    0.4  63.4 |       32    0.4 |
 |  152 |        41    0.4 |        91    0.4  63.7 |       31    0.4 |
 |  153 |        36    0.3 |        84    0.4  59.5 |       35    0.4 |
 |  154 |        40    0.4 |        90    0.4  64.4 |       31    0.4 |
 |  155 |        40    0.4 |        80    0.3  58.8 |       24    0.3 |
 |  156 |        40    0.4 |        80    0.3  58.8 |       24    0.3 |
 |  157 |        49    0.5 |       104    0.4  69.2 |       23    0.3 |
 |  158 |        36    0.3 |        90    0.4  64.4 |       37    0.5 |
 |  159 |        37    0.3 |        96    0.4  64.6 |       41    0.5 |
 |  160 |        50    0.5 |       111    0.5  70.3 |       33    0.4 |
 |  161 |        38    0.4 |        90    0.4  62.2 |       36    0.4 |
 |  162 |        38    0.4 |        87    0.4  60.9 |       34    0.4 |
 |  163 |        41    0.4 |        86    0.4  62.8 |       26    0.3 |
 |  164 |        44    0.4 |        90    0.4  64.4 |       24    0.3 |
 |  165 |        36    0.3 |        84    0.4  59.5 |       35    0.4 |
 |  166 |        44    0.4 |        93    0.4  64.5 |       26    0.3 |
 |  167 |        40    0.4 |        90    0.4  63.3 |       32    0.4 |
 |  168 |        45    0.4 |        92    0.4  63.0 |       29    0.4 |
 |  169 |        40    0.4 |        80    0.3  58.8 |       24    0.3 |
 |  170 |        40    0.4 |        80    0.3  58.8 |       24    0.3 |
 |  171 |        39    0.4 |        91    0.4  62.6 |       35    0.4 |
 |  172 |        40    0.4 |        93    0.4  63.4 |       35    0.4 |
 |  173 |        34    0.3 |        86    0.4  62.8 |       38    0.5 |
 |  174 |        47    0.4 |       107    0.5  68.2 |       39    0.5 |
 |  175 |        45    0.4 |        92    0.4  63.0 |       26    0.3 |
 |  176 |        51    0.5 |       116    0.5  70.7 |       37    0.5 |
 |  177 |        46    0.4 |        96    0.4  64.6 |       27    0.3 |
 |  178 |        40    0.4 |        80    0.3  58.8 |       24    0.3 |
 |  179 |        46    0.4 |       106    0.5  67.9 |       34    0.4 |
 |  180 |        34    0.3 |        83    0.4  59.0 |       37    0.5 |
 |  181 |        40    0.4 |        93    0.4  63.4 |       35    0.4 |
 |  182 |        42    0.4 |        86    0.4  60.5 |       26    0.3 |
 |  183 |        38    0.4 |        87    0.4  63.2 |       32    0.4 |
 |  184 |        43    0.4 |        99    0.4  67.7 |       33    0.4 |
 |  185 |        44    0.4 |        95    0.4  66.3 |       29    0.4 |
 |  186 |        36    0.3 |        80    0.3  58.8 |       32    0.4 |
 |  187 |        49    0.5 |       109    0.5  70.6 |       28    0.3 |
 |  188 |        38    0.4 |        87    0.4  60.9 |       34    0.4 |
 |  189 |        45    0.4 |        96    0.4  65.6 |       28    0.3 |
 |  190 |        39    0.4 |        91    0.4  62.6 |       35    0.4 |
 |  191 |        41    0.4 |        92    0.4  64.1 |       33    0.4 |
 |  192 |        48    0.5 |       114    0.5  71.9 |       33    0.4 |
 |  193 |        36    0.3 |        84    0.4  61.9 |       33    0.4 |
 |  194 |        45    0.4 |        98    0.4  67.3 |       29    0.4 |
 |  195 |        45    0.4 |       103    0.4  67.0 |       36    0.4 |
 |  196 |        38    0.4 |        90    0.4  64.4 |       34    0.4 |
 |  197 |        39    0.4 |        88    0.4  61.4 |       33    0.4 |
 |  198 |        42    0.4 |        88    0.4  61.4 |       33    0.4 |
 |  199 |        44    0.4 |        90    0.4  62.2 |       26    0.3 |
 |  200 |        41    0.4 |        91    0.4  63.7 |       31    0.4 |
 |  201 |        52    0.5 |       112    0.5  69.6 |       28    0.3 |
 |  202 |        38    0.4 |        87    0.4  60.9 |       34    0.4 |
 |  203 |        41    0.4 |        98    0.4  67.3 |       35    0.4 |
 |  204 |        48    0.5 |       109    0.5  70.6 |       30    0.4 |
 |  205 |        43    0.4 |        90    0.4  62.2 |       30    0.4 |
 |  206 |        40    0.4 |        94    0.4  64.9 |       36    0.4 |
 |  207 |        44    0.4 |        89    0.4  61.8 |       24    0.3 |
 |  208 |        40    0.4 |        90    0.4  63.3 |       32    0.4 |
 |  209 |        43    0.4 |       101    0.4  68.3 |       34    0.4 |
 |  210 |        38    0.4 |        91    0.4  63.7 |       36    0.4 |
 |  211 |        44    0.4 |        89    0.4  61.8 |       25    0.3 |
 |  212 |        42    0.4 |        93    0.4  65.6 |       31    0.4 |
 |  213 |        42    0.4 |        88    0.4  61.4 |       32    0.4 |
 |  214 |        43    0.4 |        88    0.4  61.4 |       26    0.3 |
 |  215 |        38    0.4 |        87    0.4  62.1 |       34    0.4 |
 |  216 |        42    0.4 |        95    0.4  66.3 |       31    0.4 |
 |  217 |        43    0.4 |        97    0.4  64.9 |       32    0.4 |
 |  218 |        45    0.4 |        99    0.4  67.7 |       29    0.4 |
 |  219 |        51    0.5 |       107    0.5  70.1 |       23    0.3 |
 |  220 |        33    0.3 |        82    0.3  61.0 |       36    0.4 |
 |  221 |        36    0.3 |        84    0.4  59.5 |       36    0.4 |
 |  222 |        42    0.4 |       104    0.4  68.3 |       39    0.5 |
 |  223 |        49    0.5 |       100    0.4  68.0 |       20    0.2 |
 |  224 |        45    0.4 |        92    0.4  63.0 |       30    0.4 |
 |  225 |        40    0.4 |        89    0.4  61.8 |       33    0.4 |
 |  226 |        37    0.3 |        85    0.4  62.4 |       33    0.4 |
 |  227 |        47    0.4 |       107    0.5  69.2 |       33    0.4 |
 |  228 |        47    0.4 |        98    0.4  65.3 |       26    0.3 |
 |  229 |        36    0.3 |        84    0.4  61.9 |       33    0.4 |
 |  230 |        50    0.5 |       102    0.4  67.6 |       22    0.3 |
 |  231 |        41    0.4 |        94    0.4  64.9 |       32    0.4 |
 |  232 |        40    0.4 |        92    0.4  65.2 |       33    0.4 |
 |  233 |        36    0.3 |        87    0.4  63.2 |       35    0.4 |
 |  234 |        39    0.4 |        91    0.4  62.6 |       39    0.5 |
 |  235 |        44    0.4 |        90    0.4  64.4 |       24    0.3 |
 |  236 |        43    0.4 |        94    0.4  63.8 |       34    0.4 |
 |  237 |        40    0.4 |        80    0.3  58.8 |       24    0.3 |
 |  238 |        43    0.4 |        87    0.4  60.9 |       24    0.3 |
 |  239 |        48    0.5 |       112    0.5  69.6 |       36    0.4 |
 |  240 |        39    0.4 |        91    0.4  61.5 |       36    0.4 |
 |  241 |        38    0.4 |        90    0.4  64.4 |       37    0.5 |
 |  242 |        38    0.4 |        87    0.4  60.9 |       34    0.4 |
 |  243 |        39    0.4 |        88    0.4  63.6 |       32    0.4 |
 |  244 |        43    0.4 |        88    0.4  62.5 |       25    0.3 |
 |  245 |        39    0.4 |        84    0.4  61.9 |       30    0.4 |
 |  246 |        40    0.4 |        90    0.4  63.3 |       32    0.4 |
 |  247 |        36    0.3 |        84    0.4  59.5 |       35    0.4 |
 |  248 |        43    0.4 |        91    0.4  64.8 |       25    0.3 |
 |  249 |        48    0.5 |       105    0.4  70.5 |       24    0.3 |
 |  250 |        40    0.4 |        96    0.4  64.6 |       37    0.5 |
 |  251 |        47    0.4 |       101    0.4  66.3 |       29    0.4 |
 |  252 |        36    0.3 |        84    0.4  59.5 |       36    0.4 |
 |  253 |        46    0.4 |        92    0.4  63.0 |       24    0.3 |
 |  254 |        50    0.5 |       114    0.5  70.2 |       38    0.5 |
 |  255 |        37    0.3 |        89    0.4  61.8 |       37    0.5 |
 |  256 |        38    0.4 |        92    0.4  63.0 |       37    0.5 |
 +------+------------------+------------------------+-----------------+
 | Min  |        27    0.3 |        64    0.3  50.0 |       20    0.2 |
 |(part)|           (   25)|           (   26    26)|          (  223)|
 +------+------------------+------------------------+-----------------+
 | Max  |        55    0.5 |       125    0.5  72.8 |       41    0.5 |
 |(part)|           (   78)|           (   78    78)|          (  159)|
 +------+------------------+------------------------+-----------------+
 | Ave  |        41    0.4 |        92    0.4  64.1 |       31    0.4 |
 +------+------------------+------------------------+-----------------+
 | Sum  |     10586  100.0 |     23549  100.0  64.0 |     8020  100.0 |
 +------+------------------+------------------------+-----------------+

 +--------------------------------------------------------------------+
 |                 Partitioning CPU-Time Requirements                 |
 +--------------------------------------------------------------------+
  
 - Preparations                                       6.200E-02 seconds
 - Low-level mesh partitioning                        1.410E-01 seconds
 - Global partitioning information                    0.000E+00 seconds
 - Element and face partitioning information          1.600E-02 seconds
 - Vertex partitioning information                    0.000E+00 seconds
 - Partitioning information compression               0.000E+00 seconds
 - Summed CPU-time for mesh partitioning              3.900E-01 seconds

 +--------------------------------------------------------------------+
 |                   Job Information at End of Run                    |
 +--------------------------------------------------------------------+

 +---------------------------+------+----------+----------+-----------+
 | Host                      | Mesh |     Job Finished    |    CPU    |
 |                           | Part | DD/MM/YY | hh:mm:ss |  seconds  |
 +---------------------------+------+----------+----------+-----------+
 | RD000D3A21FAED            |    1 | 29/05/15 | 07:34:19 | 8.218E+00 |
 +---------------------------+------+----------+----------+-----------+

 Total wall clock time: 7.892E+00 seconds
             or: (          0:         0:         0:     7.892 )
                 (       Days:     Hours:   Minutes:   Seconds )


 +--------------------------------------------------------------------+
 |                                                                    |
 |                               Solver                               |
 |                                                                    |
 +--------------------------------------------------------------------+




 +--------------------------------------------------------------------+
 |                                                                    |
 |                    ANSYS(R) CFX(R) Solver 15.0.7                   |
 |                                                                    |
 | Version 2014.04.10-23.00-131675     Thu Apr 10 23:23:23 GMTDT 2014 |
 |                                                                    |
 |                        Executable Attributes                       |
 |                                                                    |
 |          single-64bit-int32-supfort-optimised-noprof-lcomp         |
 |                                                                    |
 | (C) 2014 ANSYS, Inc.                                               |
 |                                                                    |
 | All rights reserved. Unauthorized use, distribution or duplication |
 | is prohibited. This product is subject to U.S. laws governing      |
 | export and re-export. For full Legal Notice, see documentation.    |
 +--------------------------------------------------------------------+




 +--------------------------------------------------------------------+
 |                  Job Information at Start of Run                   |
 +--------------------------------------------------------------------+

 Run mode:       parallel run (MS MPI)

 +------------------------------+------+--------+----------+----------+
 | Host                         | Mesh |  PID   |     Job Started     |
 |                              | Part |        | DD/MM/YY | hh:mm:ss |
 +------------------------------+------+--------+----------+----------+
 | RD000D3A21FAED               |    1 |   3524 | 29/05/15 | 07:36:18 |
 |                              |    2 |    744 | 29/05/15 | 07:36:18 |
 |                              |    3 |   3168 | 29/05/15 | 07:36:18 |
 |                              |    4 |   3952 | 29/05/15 | 07:36:18 |
 |                              |    5 |   3428 | 29/05/15 | 07:36:18 |
 |                              |    6 |   2460 | 29/05/15 | 07:36:18 |
 |                              |    7 |    156 | 29/05/15 | 07:36:18 |
 |                              |    8 |   2336 | 29/05/15 | 07:36:18 |
 +------------------------------+------+--------+----------+----------+
 | RD000D3A21FC45               |    9 |   3296 | 29/05/15 | 07:36:18 |
 |                              |   10 |   3752 | 29/05/15 | 07:36:18 |
 |                              |   11 |   1192 | 29/05/15 | 07:36:18 |
 |                              |   12 |   2276 | 29/05/15 | 07:36:18 |
 |                              |   13 |   3508 | 29/05/15 | 07:36:18 |
 |                              |   14 |   3592 | 29/05/15 | 07:36:18 |
 |                              |   15 |   2916 | 29/05/15 | 07:36:18 |
 |                              |   16 |   1856 | 29/05/15 | 07:36:18 |
 +------------------------------+------+--------+----------+----------+
 | RD000D3A21F47E               |   17 |   3604 | 29/05/15 | 07:36:18 |
 |                              |   18 |   2140 | 29/05/15 | 07:36:18 |
 |                              |   19 |   3512 | 29/05/15 | 07:36:18 |
 |                              |   20 |   3228 | 29/05/15 | 07:36:18 |
 |                              |   21 |   1392 | 29/05/15 | 07:36:18 |
 |                              |   22 |    468 | 29/05/15 | 07:36:18 |
 |                              |   23 |   1712 | 29/05/15 | 07:36:18 |
 |                              |   24 |   1296 | 29/05/15 | 07:36:18 |
 +------------------------------+------+--------+----------+----------+
 | RD000D3A21FFAC               |   25 |   2744 | 29/05/15 | 07:36:18 |
 |                              |   26 |   2408 | 29/05/15 | 07:36:18 |
 |                              |   27 |   4056 | 29/05/15 | 07:36:18 |
 |                              |   28 |   1092 | 29/05/15 | 07:36:18 |
 |                              |   29 |   2740 | 29/05/15 | 07:36:18 |
 |                              |   30 |   2964 | 29/05/15 | 07:36:18 |
 |                              |   31 |    404 | 29/05/15 | 07:36:18 |
 |                              |   32 |   2920 | 29/05/15 | 07:36:18 |
 +------------------------------+------+--------+----------+----------+
 | RD000D3A21F59B               |   33 |   3616 | 29/05/15 | 07:36:19 |
 |                              |   34 |   3836 | 29/05/15 | 07:36:19 |
 |                              |   35 |   4056 | 29/05/15 | 07:36:19 |
 |                              |   36 |   3780 | 29/05/15 | 07:36:19 |
 |                              |   37 |   3452 | 29/05/15 | 07:36:19 |
 |                              |   38 |   2028 | 29/05/15 | 07:36:19 |
 |                              |   39 |   3356 | 29/05/15 | 07:36:19 |
 |                              |   40 |   3832 | 29/05/15 | 07:36:19 |
 +------------------------------+------+--------+----------+----------+
 | RD000D3A21FC8B               |   41 |   1860 | 29/05/15 | 07:36:18 |
 |                              |   42 |   3216 | 29/05/15 | 07:36:18 |
 |                              |   43 |   3580 | 29/05/15 | 07:36:18 |
 |                              |   44 |   1692 | 29/05/15 | 07:36:18 |
 |                              |   45 |   3932 | 29/05/15 | 07:36:18 |
 |                              |   46 |   2712 | 29/05/15 | 07:36:18 |
 |                              |   47 |   3200 | 29/05/15 | 07:36:18 |
 |                              |   48 |   3636 | 29/05/15 | 07:36:18 |
 +------------------------------+------+--------+----------+----------+
 | RD000D3A21F495               |   49 |   3464 | 29/05/15 | 07:36:18 |
 |                              |   50 |   3796 | 29/05/15 | 07:36:18 |
 |                              |   51 |   3608 | 29/05/15 | 07:36:18 |
 |                              |   52 |   3360 | 29/05/15 | 07:36:18 |
 |                              |   53 |   3712 | 29/05/15 | 07:36:18 |
 |                              |   54 |   3264 | 29/05/15 | 07:36:18 |
 |                              |   55 |   3916 | 29/05/15 | 07:36:18 |
 |                              |   56 |   3664 | 29/05/15 | 07:36:18 |
 +------------------------------+------+--------+----------+----------+
 | RD000D3A21FCA8               |   57 |   3472 | 29/05/15 | 07:36:19 |
 |                              |   58 |   3340 | 29/05/15 | 07:36:19 |
 |                              |   59 |   2224 | 29/05/15 | 07:36:19 |
 |                              |   60 |   3600 | 29/05/15 | 07:36:19 |
 |                              |   61 |   3688 | 29/05/15 | 07:36:19 |
 |                              |   62 |   2792 | 29/05/15 | 07:36:19 |
 |                              |   63 |   3752 | 29/05/15 | 07:36:19 |
 |                              |   64 |   3060 | 29/05/15 | 07:36:19 |
 +------------------------------+------+--------+----------+----------+
 | RD000D3A21F61B               |   65 |    872 | 29/05/15 | 07:36:19 |
 |                              |   66 |   3680 | 29/05/15 | 07:36:19 |
 |                              |   67 |   1260 | 29/05/15 | 07:36:19 |
 |                              |   68 |   2088 | 29/05/15 | 07:36:19 |
 |                              |   69 |   3984 | 29/05/15 | 07:36:19 |
 |                              |   70 |   2144 | 29/05/15 | 07:36:19 |
 |                              |   71 |   3508 | 29/05/15 | 07:36:19 |
 |                              |   72 |   2940 | 29/05/15 | 07:36:19 |
 +------------------------------+------+--------+----------+----------+
 | RD000D3A21FEED               |   73 |   4052 | 29/05/15 | 07:36:18 |
 |                              |   74 |   3340 | 29/05/15 | 07:36:18 |
 |                              |   75 |   3828 | 29/05/15 | 07:36:18 |
 |                              |   76 |   3664 | 29/05/15 | 07:36:18 |
 |                              |   77 |   2332 | 29/05/15 | 07:36:18 |
 |                              |   78 |   3100 | 29/05/15 | 07:36:18 |
 |                              |   79 |    468 | 29/05/15 | 07:36:18 |
 |                              |   80 |   3364 | 29/05/15 | 07:36:18 |
 +------------------------------+------+--------+----------+----------+
 | RD000D3A21FFEC               |   81 |   3472 | 29/05/15 | 07:36:17 |
 |                              |   82 |   1112 | 29/05/15 | 07:36:17 |
 |                              |   83 |   3748 | 29/05/15 | 07:36:17 |
 |                              |   84 |   2792 | 29/05/15 | 07:36:17 |
 |                              |   85 |   3356 | 29/05/15 | 07:36:17 |
 |                              |   86 |   3724 | 29/05/15 | 07:36:17 |
 |                              |   87 |   3056 | 29/05/15 | 07:36:17 |
 |                              |   88 |   3836 | 29/05/15 | 07:36:17 |
 +------------------------------+------+--------+----------+----------+
 | RD000D3A21FC0F               |   89 |   3772 | 29/05/15 | 07:36:18 |
 |                              |   90 |   3492 | 29/05/15 | 07:36:18 |
 |                              |   91 |   3736 | 29/05/15 | 07:36:18 |
 |                              |   92 |   3904 | 29/05/15 | 07:36:18 |
 |                              |   93 |   3296 | 29/05/15 | 07:36:18 |
 |                              |   94 |   3920 | 29/05/15 | 07:36:18 |
 |                              |   95 |   3504 | 29/05/15 | 07:36:18 |
 |                              |   96 |   3792 | 29/05/15 | 07:36:18 |
 +------------------------------+------+--------+----------+----------+
 | RD000D3A21FD23               |   97 |   2164 | 29/05/15 | 07:36:18 |
 |                              |   98 |   3476 | 29/05/15 | 07:36:18 |
 |                              |   99 |   3688 | 29/05/15 | 07:36:18 |
 |                              |  100 |   2456 | 29/05/15 | 07:36:18 |
 |                              |  101 |   3588 | 29/05/15 | 07:36:18 |
 |                              |  102 |   3832 | 29/05/15 | 07:36:18 |
 |                              |  103 |   3660 | 29/05/15 | 07:36:18 |
 |                              |  104 |   3592 | 29/05/15 | 07:36:18 |
 +------------------------------+------+--------+----------+----------+
 | RD000D3A21FC1E               |  105 |   1584 | 29/05/15 | 07:36:18 |
 |                              |  106 |   3120 | 29/05/15 | 07:36:18 |
 |                              |  107 |   2608 | 29/05/15 | 07:36:18 |
 |                              |  108 |    808 | 29/05/15 | 07:36:18 |
 |                              |  109 |   2276 | 29/05/15 | 07:36:18 |
 |                              |  110 |   3236 | 29/05/15 | 07:36:18 |
 |                              |  111 |   2268 | 29/05/15 | 07:36:18 |
 |                              |  112 |   1144 | 29/05/15 | 07:36:18 |
 +------------------------------+------+--------+----------+----------+
 | RD000D3A21F2FE               |  113 |   3584 | 29/05/15 | 07:36:18 |
 |                              |  114 |    920 | 29/05/15 | 07:36:18 |
 |                              |  115 |   1876 | 29/05/15 | 07:36:18 |
 |                              |  116 |   2684 | 29/05/15 | 07:36:18 |
 |                              |  117 |   3676 | 29/05/15 | 07:36:18 |
 |                              |  118 |   3840 | 29/05/15 | 07:36:18 |
 |                              |  119 |   3712 | 29/05/15 | 07:36:18 |
 |                              |  120 |   3756 | 29/05/15 | 07:36:18 |
 +------------------------------+------+--------+----------+----------+
 | RD000D3A21FA6D               |  121 |   3944 | 29/05/15 | 07:36:18 |
 |                              |  122 |   3932 | 29/05/15 | 07:36:18 |
 |                              |  123 |   3580 | 29/05/15 | 07:36:18 |
 |                              |  124 |   1388 | 29/05/15 | 07:36:18 |
 |                              |  125 |    504 | 29/05/15 | 07:36:18 |
 |                              |  126 |   3956 | 29/05/15 | 07:36:18 |
 |                              |  127 |   3528 | 29/05/15 | 07:36:18 |
 |                              |  128 |   3232 | 29/05/15 | 07:36:18 |
 +------------------------------+------+--------+----------+----------+
 | RD000D3A21FA6F               |  129 |   2872 | 29/05/15 | 07:36:18 |
 |                              |  130 |   3964 | 29/05/15 | 07:36:18 |
 |                              |  131 |   3088 | 29/05/15 | 07:36:18 |
 |                              |  132 |   3384 | 29/05/15 | 07:36:18 |
 |                              |  133 |   2296 | 29/05/15 | 07:36:18 |
 |                              |  134 |   3768 | 29/05/15 | 07:36:18 |
 |                              |  135 |   3488 | 29/05/15 | 07:36:18 |
 |                              |  136 |   1300 | 29/05/15 | 07:36:18 |
 +------------------------------+------+--------+----------+----------+
 | RD000D3A21FDA9               |  137 |   2796 | 29/05/15 | 07:36:18 |
 |                              |  138 |   2052 | 29/05/15 | 07:36:18 |
 |                              |  139 |   3268 | 29/05/15 | 07:36:18 |
 |                              |  140 |    428 | 29/05/15 | 07:36:18 |
 |                              |  141 |   2756 | 29/05/15 | 07:36:18 |
 |                              |  142 |    984 | 29/05/15 | 07:36:18 |
 |                              |  143 |   1332 | 29/05/15 | 07:36:18 |
 |                              |  144 |   1976 | 29/05/15 | 07:36:18 |
 +------------------------------+------+--------+----------+----------+
 | RD000D3A21F990               |  145 |   3456 | 29/05/15 | 07:36:18 |
 |                              |  146 |   3564 | 29/05/15 | 07:36:18 |
 |                              |  147 |   3296 | 29/05/15 | 07:36:18 |
 |                              |  148 |   3724 | 29/05/15 | 07:36:18 |
 |                              |  149 |   3804 | 29/05/15 | 07:36:18 |
 |                              |  150 |   1020 | 29/05/15 | 07:36:18 |
 |                              |  151 |   2360 | 29/05/15 | 07:36:18 |
 |                              |  152 |   3908 | 29/05/15 | 07:36:18 |
 +------------------------------+------+--------+----------+----------+
 | RD000D3A21FFEA               |  153 |   3592 | 29/05/15 | 07:36:19 |
 |                              |  154 |   3864 | 29/05/15 | 07:36:19 |
 |                              |  155 |   3912 | 29/05/15 | 07:36:19 |
 |                              |  156 |   3044 | 29/05/15 | 07:36:19 |
 |                              |  157 |   3788 | 29/05/15 | 07:36:19 |
 |                              |  158 |   3232 | 29/05/15 | 07:36:19 |
 |                              |  159 |   1720 | 29/05/15 | 07:36:19 |
 |                              |  160 |   3332 | 29/05/15 | 07:36:19 |
 +------------------------------+------+--------+----------+----------+
 | RD000D3A21F436               |  161 |   2496 | 29/05/15 | 07:36:18 |
 |                              |  162 |   3716 | 29/05/15 | 07:36:18 |
 |                              |  163 |   2776 | 29/05/15 | 07:36:18 |
 |                              |  164 |   1680 | 29/05/15 | 07:36:18 |
 |                              |  165 |   1536 | 29/05/15 | 07:36:18 |
 |                              |  166 |   2344 | 29/05/15 | 07:36:18 |
 |                              |  167 |   3328 | 29/05/15 | 07:36:18 |
 |                              |  168 |   3384 | 29/05/15 | 07:36:18 |
 +------------------------------+------+--------+----------+----------+
 | RD000D3A21FC15               |  169 |   3868 | 29/05/15 | 07:36:18 |
 |                              |  170 |   3940 | 29/05/15 | 07:36:18 |
 |                              |  171 |   1176 | 29/05/15 | 07:36:18 |
 |                              |  172 |   2708 | 29/05/15 | 07:36:18 |
 |                              |  173 |   2284 | 29/05/15 | 07:36:18 |
 |                              |  174 |   2832 | 29/05/15 | 07:36:18 |
 |                              |  175 |   4008 | 29/05/15 | 07:36:18 |
 |                              |  176 |   4048 | 29/05/15 | 07:36:18 |
 +------------------------------+------+--------+----------+----------+
 | RD000D3A21FB9A               |  177 |   3212 | 29/05/15 | 07:36:19 |
 |                              |  178 |   3764 | 29/05/15 | 07:36:19 |
 |                              |  179 |   2944 | 29/05/15 | 07:36:19 |
 |                              |  180 |   2516 | 29/05/15 | 07:36:19 |
 |                              |  181 |   2556 | 29/05/15 | 07:36:19 |
 |                              |  182 |   2904 | 29/05/15 | 07:36:19 |
 |                              |  183 |   2980 | 29/05/15 | 07:36:19 |
 |                              |  184 |   2096 | 29/05/15 | 07:36:19 |
 +------------------------------+------+--------+----------+----------+
 | RD000D3A21F854               |  185 |   2820 | 29/05/15 | 07:36:18 |
 |                              |  186 |   3608 | 29/05/15 | 07:36:18 |
 |                              |  187 |   3384 | 29/05/15 | 07:36:18 |
 |                              |  188 |   3952 | 29/05/15 | 07:36:18 |
 |                              |  189 |   2912 | 29/05/15 | 07:36:18 |
 |                              |  190 |   3928 | 29/05/15 | 07:36:18 |
 |                              |  191 |   3604 | 29/05/15 | 07:36:18 |
 |                              |  192 |   3856 | 29/05/15 | 07:36:18 |
 +------------------------------+------+--------+----------+----------+
 | RD000D3A21F25F               |  193 |   1552 | 29/05/15 | 07:36:19 |
 |                              |  194 |   3132 | 29/05/15 | 07:36:19 |
 |                              |  195 |   3836 | 29/05/15 | 07:36:19 |
 |                              |  196 |   3572 | 29/05/15 | 07:36:19 |
 |                              |  197 |   3964 | 29/05/15 | 07:36:19 |
 |                              |  198 |   3076 | 29/05/15 | 07:36:19 |
 |                              |  199 |   1716 | 29/05/15 | 07:36:19 |
 |                              |  200 |   1160 | 29/05/15 | 07:36:19 |
 +------------------------------+------+--------+----------+----------+
 | RD000D3A21F7A7               |  201 |   1304 | 29/05/15 | 07:36:18 |
 |                              |  202 |   1164 | 29/05/15 | 07:36:18 |
 |                              |  203 |   3540 | 29/05/15 | 07:36:18 |
 |                              |  204 |    408 | 29/05/15 | 07:36:18 |
 |                              |  205 |   3260 | 29/05/15 | 07:36:18 |
 |                              |  206 |   2508 | 29/05/15 | 07:36:18 |
 |                              |  207 |   1104 | 29/05/15 | 07:36:18 |
 |                              |  208 |   2456 | 29/05/15 | 07:36:18 |
 +------------------------------+------+--------+----------+----------+
 | RD000D3A21FA60               |  209 |   2168 | 29/05/15 | 07:36:18 |
 |                              |  210 |   2192 | 29/05/15 | 07:36:18 |
 |                              |  211 |   1144 | 29/05/15 | 07:36:18 |
 |                              |  212 |   2492 | 29/05/15 | 07:36:18 |
 |                              |  213 |   1932 | 29/05/15 | 07:36:18 |
 |                              |  214 |   3896 | 29/05/15 | 07:36:18 |
 |                              |  215 |   1592 | 29/05/15 | 07:36:18 |
 |                              |  216 |   1284 | 29/05/15 | 07:36:18 |
 +------------------------------+------+--------+----------+----------+
 | RD000D3A21FEFD               |  217 |     96 | 29/05/15 | 07:36:18 |
 |                              |  218 |   3524 | 29/05/15 | 07:36:18 |
 |                              |  219 |    948 | 29/05/15 | 07:36:18 |
 |                              |  220 |   3572 | 29/05/15 | 07:36:18 |
 |                              |  221 |    504 | 29/05/15 | 07:36:18 |
 |                              |  222 |   1668 | 29/05/15 | 07:36:18 |
 |                              |  223 |   3212 | 29/05/15 | 07:36:18 |
 |                              |  224 |   4020 | 29/05/15 | 07:36:18 |
 +------------------------------+------+--------+----------+----------+
 | RD000D3A21FC08               |  225 |   3732 | 29/05/15 | 07:36:19 |
 |                              |  226 |    980 | 29/05/15 | 07:36:19 |
 |                              |  227 |   4028 | 29/05/15 | 07:36:19 |
 |                              |  228 |   1928 | 29/05/15 | 07:36:19 |
 |                              |  229 |   1720 | 29/05/15 | 07:36:19 |
 |                              |  230 |   3564 | 29/05/15 | 07:36:19 |
 |                              |  231 |   3800 | 29/05/15 | 07:36:19 |
 |                              |  232 |   2228 | 29/05/15 | 07:36:19 |
 +------------------------------+------+--------+----------+----------+
 | RD000D3A21F275               |  233 |   2764 | 29/05/15 | 07:36:18 |
 |                              |  234 |   3836 | 29/05/15 | 07:36:18 |
 |                              |  235 |   3852 | 29/05/15 | 07:36:18 |
 |                              |  236 |   2924 | 29/05/15 | 07:36:18 |
 |                              |  237 |   1516 | 29/05/15 | 07:36:18 |
 |                              |  238 |   4024 | 29/05/15 | 07:36:18 |
 |                              |  239 |   3576 | 29/05/15 | 07:36:18 |
 |                              |  240 |   3936 | 29/05/15 | 07:36:18 |
 +------------------------------+------+--------+----------+----------+
 | RD000D3A21F95A               |  241 |   4040 | 29/05/15 | 07:36:18 |
 |                              |  242 |   3440 | 29/05/15 | 07:36:18 |
 |                              |  243 |   3620 | 29/05/15 | 07:36:18 |
 |                              |  244 |   3572 | 29/05/15 | 07:36:18 |
 |                              |  245 |   4060 | 29/05/15 | 07:36:18 |
 |                              |  246 |   3916 | 29/05/15 | 07:36:18 |
 |                              |  247 |   3476 | 29/05/15 | 07:36:18 |
 |                              |  248 |   1692 | 29/05/15 | 07:36:18 |
 +------------------------------+------+--------+----------+----------+
 | RD000D3A21F4A5               |  249 |   3364 | 29/05/15 | 07:36:18 |
 |                              |  250 |   2876 | 29/05/15 | 07:36:18 |
 |                              |  251 |   3500 | 29/05/15 | 07:36:18 |
 |                              |  252 |   4068 | 29/05/15 | 07:36:18 |
 |                              |  253 |   4016 | 29/05/15 | 07:36:18 |
 |                              |  254 |   3356 | 29/05/15 | 07:36:18 |
 |                              |  255 |   1912 | 29/05/15 | 07:36:18 |
 |                              |  256 |   1264 | 29/05/15 | 07:36:18 |
 +------------------------------+------+--------+----------+----------+

 +--------------------------------------------------------------------+
 |                        License Information                         |
 +--------------------------------------------------------------------+
 
 License Cap:    ANSYS CFX Solver (Max 128K Nodes)
 License Cap:     Parallel
 License ID:     hsrAnsysLS-SYSTEM-320-057370


 +--------------------------------------------------------------------+
 |        Memory Allocated for Run  (Actual usage may be less)        |
 +--------------------------------------------------------------------+

 Allocated storage in:    Mwords
                          Mbytes

 Partition | Real       | Integer    | Character | Logical  | Double
 ----------+------------+------------+-----------+----------+----------
   Minimum |       1.25 |       1.66 |      3.71 |     0.12 |     0.08
  (    25) |       4.77 |       6.35 |      3.54 |     0.11 |     0.58
 ----------+------------+------------+-----------+----------+----------
   Maximum |       2.44 |       1.83 |      3.71 |     0.12 |     0.08
  (     1) |       9.31 |       6.97 |      3.54 |     0.11 |     0.58
 ----------+------------+------------+-----------+----------+----------
   Average |       1.34 |       1.67 |      3.71 |     0.12 |     0.08
           |       5.13 |       6.35 |      3.54 |     0.11 |     0.58
 ----------+------------+------------+-----------+----------+----------
     Total |     344.31 |     426.38 |    950.42 |    30.72 |    19.36
           |    1313.45 |    1626.52 |    906.39 |    29.30 |   147.67
 ----------+------------+------------+-----------+----------+----------


 +--------------------------------------------------------------------+
 |                  Host Memory Information (Mbytes)                  |
 +--------------------------------------------------------------------+
 |           Host         | Npart |   System    |  Allocated  |   %   |
 +------------------------+-------+-------------+-------------+-------+
 | RD000D3A21FAED         |    8  |    57343.55 |      130.07 |  0.23 |
 +------------------------+-------+-------------+-------------+-------+
 | RD000D3A21FC45         |    8  |    57343.55 |      125.73 |  0.22 |
 +------------------------+-------+-------------+-------------+-------+
 | RD000D3A21F47E         |    8  |    57343.55 |      125.55 |  0.22 |
 +------------------------+-------+-------------+-------------+-------+
 | RD000D3A21FFAC         |    8  |    57343.55 |      124.58 |  0.22 |
 +------------------------+-------+-------------+-------------+-------+
 | RD000D3A21F59B         |    8  |    57343.55 |      125.77 |  0.22 |
 +------------------------+-------+-------------+-------------+-------+
 | RD000D3A21FC8B         |    8  |    57343.55 |      125.31 |  0.22 |
 +------------------------+-------+-------------+-------------+-------+
 | RD000D3A21F495         |    8  |    57343.55 |      126.06 |  0.22 |
 +------------------------+-------+-------------+-------------+-------+
 | RD000D3A21FCA8         |    8  |    57343.55 |      125.36 |  0.22 |
 +------------------------+-------+-------------+-------------+-------+
 | RD000D3A21F61B         |    8  |    57343.55 |      125.77 |  0.22 |
 +------------------------+-------+-------------+-------------+-------+
 | RD000D3A21FEED         |    8  |    57343.55 |      126.04 |  0.22 |
 +------------------------+-------+-------------+-------------+-------+
 | RD000D3A21FFEC         |    8  |    57343.55 |      125.68 |  0.22 |
 +------------------------+-------+-------------+-------------+-------+
 | RD000D3A21FC0F         |    8  |    57343.55 |      125.88 |  0.22 |
 +------------------------+-------+-------------+-------------+-------+
 | RD000D3A21FD23         |    8  |    57343.55 |      125.58 |  0.22 |
 +------------------------+-------+-------------+-------------+-------+
 | RD000D3A21FC1E         |    8  |    57343.55 |      125.58 |  0.22 |
 +------------------------+-------+-------------+-------------+-------+
 | RD000D3A21F2FE         |    8  |    57343.55 |      125.52 |  0.22 |
 +------------------------+-------+-------------+-------------+-------+
 | RD000D3A21FA6D         |    8  |    57343.55 |      125.34 |  0.22 |
 +------------------------+-------+-------------+-------------+-------+
 | RD000D3A21FA6F         |    8  |    57343.55 |      125.56 |  0.22 |
 +------------------------+-------+-------------+-------------+-------+
 | RD000D3A21FDA9         |    8  |    57343.55 |      125.57 |  0.22 |
 +------------------------+-------+-------------+-------------+-------+
 | RD000D3A21F990         |    8  |    57343.55 |      124.98 |  0.22 |
 +------------------------+-------+-------------+-------------+-------+
 | RD000D3A21FFEA         |    8  |    57343.55 |      125.51 |  0.22 |
 +------------------------+-------+-------------+-------------+-------+
 | RD000D3A21F436         |    8  |    57343.55 |      125.45 |  0.22 |
 +------------------------+-------+-------------+-------------+-------+
 | RD000D3A21FC15         |    8  |    57343.55 |      125.70 |  0.22 |
 +------------------------+-------+-------------+-------------+-------+
 | RD000D3A21FB9A         |    8  |    57343.55 |      125.53 |  0.22 |
 +------------------------+-------+-------------+-------------+-------+
 | RD000D3A21F854         |    8  |    57343.55 |      125.80 |  0.22 |
 +------------------------+-------+-------------+-------------+-------+
 | RD000D3A21F25F         |    8  |    57343.55 |      125.56 |  0.22 |
 +------------------------+-------+-------------+-------------+-------+
 | RD000D3A21F7A7         |    8  |    57343.55 |      125.94 |  0.22 |
 +------------------------+-------+-------------+-------------+-------+
 | RD000D3A21FA60         |    8  |    57343.55 |      125.60 |  0.22 |
 +------------------------+-------+-------------+-------------+-------+
 | RD000D3A21FEFD         |    8  |    57343.55 |      125.89 |  0.22 |
 +------------------------+-------+-------------+-------------+-------+
 | RD000D3A21FC08         |    8  |    57343.55 |      125.75 |  0.22 |
 +------------------------+-------+-------------+-------------+-------+
 | RD000D3A21F275         |    8  |    57343.55 |      125.60 |  0.22 |
 +------------------------+-------+-------------+-------------+-------+
 | RD000D3A21F95A         |    8  |    57343.55 |      125.21 |  0.22 |
 +------------------------+-------+-------------+-------------+-------+
 | RD000D3A21F4A5         |    8  |    57343.55 |      125.86 |  0.22 |
 +------------------------+-------+-------------+-------------+-------+
 | Total                  |  256  |  1834993.62 |     4023.32 |  0.22 |
 +------------------------+-------+-------------+-------------+-------+

 +--------------------------------------------------------------------+
 |                          Mesh Statistics                           |
 +--------------------------------------------------------------------+
 | Domain Name          | Orthog. Angle | Exp. Factor  | Aspect Ratio |
 +----------------------+---------------+--------------+--------------+
 |                      | Minimum [deg] |   Maximum    |    Maximum   |
 +----------------------+---------------+--------------+--------------+
 | Default Domain       |       69.3 OK |         4 OK |         4 OK |
 +----------------------+---------------+--------------+--------------+
 |                      |  %!  %ok  %OK | %!  %ok  %OK | %!  %ok  %OK |
 +----------------------+---------------+--------------+--------------+
 | Default Domain       |   0    0  100 |  0    0  100 |  0    0  100 |
 +----------------------+---------------+--------------+--------------+

 Domain Name : Default Domain

     Total Number of Nodes                                =        8478

     Total Number of Elements                             =        5634
         Total Number of Hexahedrons                      =        5634

     Total Number of Faces                                =        5044

 +--------------------------------------------------------------------+
 |                     Average Scale Information                      |
 +--------------------------------------------------------------------+

 Domain Name : Default Domain
     Global Length                                         = 8.6454E-02
     Minimum Extent                                        = 1.6000E-02
     Maximum Extent                                        = 8.3800E-01
     Density                                               = 1.1850E+00
     Dynamic Viscosity                                     = 1.8310E-05
     Velocity                                              = 8.1802E-03
     Advection Time                                        = 1.0569E+01
     Reynolds Number                                       = 4.5770E+01
 
 +--------------------------------------------------------------------+
 | ERROR #002100004 has occurred in subroutine Out_Scales_Flu.        |
 | Message:                                                           |
 | The Reynolds number is outside of the range expected based on the  |
 | Option selected for the TURBULENCE MODEL. Check this setting,      |
 | the values of the properties, mesh scale, consistency of units     |
 | and solution values in the input file. Execution will proceed.     |
 +--------------------------------------------------------------------+

 +--------------------------------------------------------------------+
 |                Checking for Isolated Fluid Regions                 |
 +--------------------------------------------------------------------+
 
 No isolated fluid regions were found.

 +--------------------------------------------------------------------+
 |              The Equations Solved in This Calculation              |
 +--------------------------------------------------------------------+

 Subsystem : Momentum and Mass

   U-Mom
   V-Mom
   W-Mom
   P-Mass

 Subsystem : TurbKE and Diss.K

   K-TurbKE
   E-Diss.K
                   
 CFD Solver started: Fri May 29 07:36:46 2015


 +--------------------------------------------------------------------+
 |                       Convergence History                          |
 +--------------------------------------------------------------------+

 ======================================================================
 |                        Timescale Information                       |
 ----------------------------------------------------------------------
 |       Equation       |         Type          |      Timescale      |
 +----------------------+-----------------------+---------------------+
 | U-Mom                | Auto Timescale        |     2.59362E+00     |
 | V-Mom                | Auto Timescale        |     2.59362E+00     |
 | W-Mom                | Auto Timescale        |     2.59362E+00     |
 +----------------------+-----------------------+---------------------+
 | K-TurbKE             | Auto Timescale        |     2.59362E+00     |
 | E-Diss.K             | Auto Timescale        |     2.59362E+00     |
 +----------------------+-----------------------+---------------------+

 ======================================================================
 OUTER LOOP ITERATION =    1                    CPU SECONDS = 1.147E+04
 ----------------------------------------------------------------------
 |       Equation       | Rate | RMS Res | Max Res |  Linear Solution |
 +----------------------+------+---------+---------+------------------+
 | U-Mom                | 0.00 | 4.9E-04 | 2.1E-03 |       3.0E+00  ok|
 | V-Mom                | 0.00 | 5.0E-04 | 2.1E-03 |       1.8E+00  ok|
 | W-Mom                | 0.00 | 1.4E-05 | 6.0E-05 |       2.1E+01  ok|
 | P-Mass               | 0.00 | 2.1E-02 | 9.0E-02 |  8.9  2.0E-02  OK|
 +----------------------+------+---------+---------+------------------+
 | K-TurbKE             | 0.00 | 2.5E-03 | 5.3E-02 | 10.3  4.5E-02  OK|
 | E-Diss.K             | 0.00 | 8.5E-02 | 1.0E+00 | 11.3  2.4E-02  OK|
 +----------------------+------+---------+---------+------------------+

 ======================================================================
 OUTER LOOP ITERATION =    2                    CPU SECONDS = 1.346E+04
 ----------------------------------------------------------------------
 |       Equation       | Rate | RMS Res | Max Res |  Linear Solution |
 +----------------------+------+---------+---------+------------------+
 | U-Mom                | 8.70 | 4.2E-03 | 3.7E-02 |       7.4E-02  OK|
 | V-Mom                | 8.71 | 4.4E-03 | 3.7E-02 |       5.6E-02  OK|
 | W-Mom                |99.99 | 2.5E-03 | 9.1E-03 |       3.6E-02  OK|
 | P-Mass               | 0.31 | 6.5E-03 | 1.2E-01 | 12.9  4.4E-02  OK|
 +----------------------+------+---------+---------+------------------+
 | K-TurbKE             | 0.20 | 5.0E-04 | 7.0E-03 | 14.8  5.1E-02  OK|
 | E-Diss.K             | 1.07 | 9.1E-02 | 9.7E-01 | 11.4  3.1E-02  OK|
 +----------------------+------+---------+---------+------------------+

 ======================================================================
 OUTER LOOP ITERATION =    3                    CPU SECONDS = 1.353E+04
 ----------------------------------------------------------------------
 |       Equation       | Rate | RMS Res | Max Res |  Linear Solution |
 +----------------------+------+---------+---------+------------------+
 | U-Mom                | 1.13 | 4.8E-03 | 5.2E-02 |       4.0E-02  OK|
 | V-Mom                | 1.07 | 4.7E-03 | 5.4E-02 |       2.5E-02  OK|
 | W-Mom                | 0.80 | 2.0E-03 | 9.5E-03 |       3.8E-02  OK|
 | P-Mass               | 0.40 | 2.6E-03 | 7.2E-02 | 12.9  8.5E-02  OK|
 +----------------------+------+---------+---------+------------------+
 | K-TurbKE             | 1.25 | 6.2E-04 | 8.7E-03 | 10.1  8.1E-02  OK|
 | E-Diss.K             | 0.56 | 5.1E-02 | 4.2E-01 | 11.5  2.7E-02  OK|
 +----------------------+------+---------+---------+------------------+

 ======================================================================
 OUTER LOOP ITERATION =    4                    CPU SECONDS = 1.360E+04
 ----------------------------------------------------------------------
 |       Equation       | Rate | RMS Res | Max Res |  Linear Solution |
 +----------------------+------+---------+---------+------------------+
 | U-Mom                | 0.56 | 2.7E-03 | 3.5E-02 |       2.5E-01  ok|
 | V-Mom                | 0.57 | 2.7E-03 | 3.2E-02 |       2.6E-01  ok|
 | W-Mom                | 0.67 | 1.3E-03 | 9.3E-03 |       1.0E-01  ok|
 | P-Mass               | 1.97 | 5.2E-03 | 8.7E-02 |  5.0  9.7E-02  OK|
 +----------------------+------+---------+---------+------------------+
 | K-TurbKE             | 1.51 | 9.4E-04 | 1.1E-02 | 10.1  4.1E-02  OK|
 | E-Diss.K             | 0.64 | 3.3E-02 | 3.5E-01 | 11.5  1.8E-02  OK|
 +----------------------+------+---------+---------+------------------+

 ======================================================================
 OUTER LOOP ITERATION =    5                    CPU SECONDS = 1.367E+04
 ----------------------------------------------------------------------
 |       Equation       | Rate | RMS Res | Max Res |  Linear Solution |
 +----------------------+------+---------+---------+------------------+
 | U-Mom                | 0.51 | 1.4E-03 | 2.1E-02 |       1.6E-01  ok|
 | V-Mom                | 0.51 | 1.4E-03 | 1.9E-02 |       1.6E-01  ok|
 | W-Mom                | 0.56 | 7.4E-04 | 6.2E-03 |       7.4E-02  OK|
 | P-Mass               | 1.06 | 5.5E-03 | 9.4E-02 |  5.0  7.3E-02  OK|
 +----------------------+------+---------+---------+------------------+
 | K-TurbKE             | 1.24 | 1.2E-03 | 1.8E-02 | 10.2  3.1E-02  OK|
 | E-Diss.K             | 1.44 | 4.7E-02 | 5.0E-01 | 11.5  1.8E-02  OK|
 +----------------------+------+---------+---------+------------------+

 ======================================================================
 |                        Timescale Information                       |
 ----------------------------------------------------------------------
 |       Equation       |         Type          |      Timescale      |
 +----------------------+-----------------------+---------------------+
 | U-Mom                | Auto Timescale        |     2.58545E+00     |
 | V-Mom                | Auto Timescale        |     2.58545E+00     |
 | W-Mom                | Auto Timescale        |     2.58545E+00     |
 +----------------------+-----------------------+---------------------+
 | K-TurbKE             | Auto Timescale        |     2.58545E+00     |
 | E-Diss.K             | Auto Timescale        |     2.58545E+00     |
 +----------------------+-----------------------+---------------------+

 ======================================================================
 OUTER LOOP ITERATION =    6                    CPU SECONDS = 1.376E+04
 ----------------------------------------------------------------------
 |       Equation       | Rate | RMS Res | Max Res |  Linear Solution |
 +----------------------+------+---------+---------+------------------+
 | U-Mom                | 0.48 | 6.5E-04 | 1.2E-02 |       1.9E-01  ok|
 | V-Mom                | 0.47 | 6.4E-04 | 9.8E-03 |       1.7E-01  ok|
 | W-Mom                | 0.44 | 3.3E-04 | 3.0E-03 |       1.3E-01  ok|
 | P-Mass               | 0.58 | 3.2E-03 | 7.1E-02 |  5.0  3.9E-02  OK|
 +----------------------+------+---------+---------+------------------+
 | K-TurbKE             | 0.87 | 1.0E-03 | 1.2E-02 | 10.2  2.6E-02  OK|
 | E-Diss.K             | 1.02 | 4.8E-02 | 4.3E-01 | 11.5  2.0E-02  OK|
 +----------------------+------+---------+---------+------------------+

 ======================================================================
 OUTER LOOP ITERATION =    7                    CPU SECONDS = 1.382E+04
 ----------------------------------------------------------------------
 |       Equation       | Rate | RMS Res | Max Res |  Linear Solution |
 +----------------------+------+---------+---------+------------------+
 | U-Mom                | 0.54 | 3.5E-04 | 6.8E-03 |       1.7E-01  ok|
 | V-Mom                | 0.53 | 3.4E-04 | 5.1E-03 |       1.9E-01  ok|
 | W-Mom                | 0.52 | 1.7E-04 | 1.4E-03 |       1.2E-01  ok|
 | P-Mass               | 0.65 | 2.1E-03 | 4.7E-02 |  5.0  4.0E-02  OK|
 +----------------------+------+---------+---------+------------------+
 | K-TurbKE             | 0.83 | 8.4E-04 | 7.7E-03 | 10.1  2.3E-02  OK|
 | E-Diss.K             | 0.90 | 4.3E-02 | 3.5E-01 | 11.5  2.2E-02  OK|
 +----------------------+------+---------+---------+------------------+

 ======================================================================
 OUTER LOOP ITERATION =    8                    CPU SECONDS = 1.389E+04
 ----------------------------------------------------------------------
 |       Equation       | Rate | RMS Res | Max Res |  Linear Solution |
 +----------------------+------+---------+---------+------------------+
 | U-Mom                | 0.55 | 1.9E-04 | 4.0E-03 |       1.6E-01  ok|
 | V-Mom                | 0.57 | 1.9E-04 | 3.0E-03 |       2.2E-01  ok|
 | W-Mom                | 0.56 | 9.7E-05 | 7.8E-04 |       1.2E-01  ok|
 | P-Mass               | 0.55 | 1.1E-03 | 2.7E-02 |  5.0  3.9E-02  OK|
 +----------------------+------+---------+---------+------------------+
 | K-TurbKE             | 0.84 | 7.0E-04 | 6.4E-03 | 10.1  1.9E-02  OK|
 | E-Diss.K             | 0.88 | 3.8E-02 | 2.8E-01 | 11.5  2.3E-02  OK|
 +----------------------+------+---------+---------+------------------+

 ======================================================================
 OUTER LOOP ITERATION =    9                    CPU SECONDS = 1.396E+04
 ----------------------------------------------------------------------
 |       Equation       | Rate | RMS Res | Max Res |  Linear Solution |
 +----------------------+------+---------+---------+------------------+
 | U-Mom                | 0.62 | 1.2E-04 | 2.3E-03 |       1.6E-01  ok|
 | V-Mom                | 0.65 | 1.3E-04 | 2.2E-03 |       2.7E-01  ok|
 | W-Mom                | 0.66 | 6.4E-05 | 6.0E-04 |       1.1E-01  ok|
 | P-Mass               | 0.53 | 6.1E-04 | 1.3E-02 |  5.0  4.5E-02  OK|
 +----------------------+------+---------+---------+------------------+
 | K-TurbKE             | 0.85 | 6.0E-04 | 5.3E-03 | 10.2  1.7E-02  OK|
 | E-Diss.K             | 0.88 | 3.4E-02 | 2.3E-01 | 11.5  2.5E-02  OK|
 +----------------------+------+---------+---------+------------------+

[...]
 |                           |   20 | 29/05/15 | 07:37:02 | 4.659E+01 |
 |                           |   21 | 29/05/15 | 07:37:02 | 4.659E+01 |
 |                           |   22 | 29/05/15 | 07:37:02 | 4.659E+01 |
 |                           |   23 | 29/05/15 | 07:37:02 | 4.659E+01 |
 |                           |   24 | 29/05/15 | 07:37:02 | 4.659E+01 |
 +---------------------------+------+----------+----------+-----------+
 | RD000D3A21FFAC            |   25 | 29/05/15 | 07:37:02 | 8.032E+01 |
 |                           |   26 | 29/05/15 | 07:37:02 | 8.032E+01 |
 |                           |   27 | 29/05/15 | 07:37:02 | 8.032E+01 |
 |                           |   28 | 29/05/15 | 07:37:02 | 8.032E+01 |
 |                           |   29 | 29/05/15 | 07:37:02 | 8.032E+01 |
 |                           |   30 | 29/05/15 | 07:37:02 | 8.032E+01 |
 |                           |   31 | 29/05/15 | 07:37:02 | 8.032E+01 |
 |                           |   32 | 29/05/15 | 07:37:02 | 8.032E+01 |
 +---------------------------+------+----------+----------+-----------+
 | RD000D3A21F59B            |   33 | 29/05/15 | 07:37:02 | 4.528E+01 |
 |                           |   34 | 29/05/15 | 07:37:02 | 4.528E+01 |
 |                           |   35 | 29/05/15 | 07:37:02 | 4.528E+01 |
 |                           |   36 | 29/05/15 | 07:37:02 | 4.528E+01 |
 |                           |   37 | 29/05/15 | 07:37:02 | 4.528E+01 |
 |                           |   38 | 29/05/15 | 07:37:02 | 4.528E+01 |
 |                           |   39 | 29/05/15 | 07:37:02 | 4.528E+01 |
 |                           |   40 | 29/05/15 | 07:37:02 | 4.528E+01 |
 +---------------------------+------+----------+----------+-----------+
 | RD000D3A21FC8B            |   41 | 29/05/15 | 07:37:02 | 6.199E+01 |
 |                           |   42 | 29/05/15 | 07:37:02 | 6.199E+01 |
 |                           |   43 | 29/05/15 | 07:37:02 | 6.199E+01 |
 |                           |   44 | 29/05/15 | 07:37:02 | 6.199E+01 |
 |                           |   45 | 29/05/15 | 07:37:02 | 6.199E+01 |
 |                           |   46 | 29/05/15 | 07:37:02 | 6.199E+01 |
 |                           |   47 | 29/05/15 | 07:37:02 | 6.199E+01 |
 |                           |   48 | 29/05/15 | 07:37:02 | 6.199E+01 |
 +---------------------------+------+----------+----------+-----------+
 | RD000D3A21F495            |   49 | 29/05/15 | 07:37:01 | 6.574E+01 |
 |                           |   50 | 29/05/15 | 07:37:01 | 6.574E+01 |
 |                           |   51 | 29/05/15 | 07:37:01 | 6.574E+01 |
 |                           |   52 | 29/05/15 | 07:37:01 | 6.574E+01 |
 |                           |   53 | 29/05/15 | 07:37:01 | 6.574E+01 |
 |                           |   54 | 29/05/15 | 07:37:01 | 6.574E+01 |
 |                           |   55 | 29/05/15 | 07:37:01 | 6.574E+01 |
 |                           |   56 | 29/05/15 | 07:37:01 | 6.574E+01 |
 +---------------------------+------+----------+----------+-----------+
 | RD000D3A21FCA8            |   57 | 29/05/15 | 07:37:02 | 6.433E+01 |
 |                           |   58 | 29/05/15 | 07:37:02 | 6.433E+01 |
 |                           |   59 | 29/05/15 | 07:37:02 | 6.433E+01 |
 |                           |   60 | 29/05/15 | 07:37:02 | 6.433E+01 |
 |                           |   61 | 29/05/15 | 07:37:02 | 6.433E+01 |
 |                           |   62 | 29/05/15 | 07:37:02 | 6.433E+01 |
 |                           |   63 | 29/05/15 | 07:37:02 | 6.433E+01 |
 |                           |   64 | 29/05/15 | 07:37:02 | 6.433E+01 |
 +---------------------------+------+----------+----------+-----------+
 | RD000D3A21F61B            |   65 | 29/05/15 | 07:37:01 | 6.466E+01 |
 |                           |   66 | 29/05/15 | 07:37:01 | 6.466E+01 |
 |                           |   67 | 29/05/15 | 07:37:01 | 6.466E+01 |
 |                           |   68 | 29/05/15 | 07:37:01 | 6.466E+01 |
 |                           |   69 | 29/05/15 | 07:37:01 | 6.466E+01 |
 |                           |   70 | 29/05/15 | 07:37:01 | 6.466E+01 |
 |                           |   71 | 29/05/15 | 07:37:01 | 6.466E+01 |
 |                           |   72 | 29/05/15 | 07:37:01 | 6.466E+01 |
 +---------------------------+------+----------+----------+-----------+
 | RD000D3A21FEED            |   73 | 29/05/15 | 07:37:01 | 4.751E+01 |
 |                           |   74 | 29/05/15 | 07:37:01 | 4.751E+01 |
 |                           |   75 | 29/05/15 | 07:37:01 | 4.751E+01 |
 |                           |   76 | 29/05/15 | 07:37:01 | 4.751E+01 |
 |                           |   77 | 29/05/15 | 07:37:01 | 4.751E+01 |
 |                           |   78 | 29/05/15 | 07:37:01 | 4.751E+01 |
 |                           |   79 | 29/05/15 | 07:37:01 | 4.751E+01 |
 |                           |   80 | 29/05/15 | 07:37:01 | 4.751E+01 |
 +---------------------------+------+----------+----------+-----------+
 | RD000D3A21FFEC            |   81 | 29/05/15 | 07:37:01 | 6.445E+01 |
 |                           |   82 | 29/05/15 | 07:37:01 | 6.445E+01 |
 |                           |   83 | 29/05/15 | 07:37:01 | 6.445E+01 |
 |                           |   84 | 29/05/15 | 07:37:01 | 6.445E+01 |
 |                           |   85 | 29/05/15 | 07:37:01 | 6.445E+01 |
 |                           |   86 | 29/05/15 | 07:37:01 | 6.445E+01 |
 |                           |   87 | 29/05/15 | 07:37:01 | 6.445E+01 |
 |                           |   88 | 29/05/15 | 07:37:01 | 6.445E+01 |
 +---------------------------+------+----------+----------+-----------+
 | RD000D3A21FC0F            |   89 | 29/05/15 | 07:37:01 | 4.615E+01 |
 |                           |   90 | 29/05/15 | 07:37:01 | 4.615E+01 |
 |                           |   91 | 29/05/15 | 07:37:01 | 4.615E+01 |
 |                           |   92 | 29/05/15 | 07:37:01 | 4.615E+01 |
 |                           |   93 | 29/05/15 | 07:37:01 | 4.615E+01 |
 |                           |   94 | 29/05/15 | 07:37:01 | 4.615E+01 |
 |                           |   95 | 29/05/15 | 07:37:01 | 4.615E+01 |
 |                           |   96 | 29/05/15 | 07:37:01 | 4.615E+01 |
 +---------------------------+------+----------+----------+-----------+
 | RD000D3A21FD23            |   97 | 29/05/15 | 07:37:01 | 4.830E+01 |
 |                           |   98 | 29/05/15 | 07:37:01 | 4.830E+01 |
 |                           |   99 | 29/05/15 | 07:37:01 | 4.830E+01 |
 |                           |  100 | 29/05/15 | 07:37:01 | 4.830E+01 |
 |                           |  101 | 29/05/15 | 07:37:01 | 4.830E+01 |
 |                           |  102 | 29/05/15 | 07:37:01 | 4.830E+01 |
 |                           |  103 | 29/05/15 | 07:37:01 | 4.830E+01 |
 |                           |  104 | 29/05/15 | 07:37:01 | 4.830E+01 |
 +---------------------------+------+----------+----------+-----------+
 | RD000D3A21FC1E            |  105 | 29/05/15 | 07:37:02 | 6.456E+01 |
 |                           |  106 | 29/05/15 | 07:37:02 | 6.456E+01 |
 |                           |  107 | 29/05/15 | 07:37:02 | 6.456E+01 |
 |                           |  108 | 29/05/15 | 07:37:02 | 6.456E+01 |
 |                           |  109 | 29/05/15 | 07:37:02 | 6.456E+01 |
 |                           |  110 | 29/05/15 | 07:37:02 | 6.456E+01 |
 |                           |  111 | 29/05/15 | 07:37:02 | 6.456E+01 |
 |                           |  112 | 29/05/15 | 07:37:02 | 6.456E+01 |
 +---------------------------+------+----------+----------+-----------+
 | RD000D3A21F2FE            |  113 | 29/05/15 | 07:37:01 | 4.613E+01 |
 |                           |  114 | 29/05/15 | 07:37:01 | 4.613E+01 |
 |                           |  115 | 29/05/15 | 07:37:01 | 4.613E+01 |
 |                           |  116 | 29/05/15 | 07:37:01 | 4.613E+01 |
 |                           |  117 | 29/05/15 | 07:37:01 | 4.613E+01 |
 |                           |  118 | 29/05/15 | 07:37:01 | 4.613E+01 |
 |                           |  119 | 29/05/15 | 07:37:01 | 4.613E+01 |
 |                           |  120 | 29/05/15 | 07:37:01 | 4.613E+01 |
 +---------------------------+------+----------+----------+-----------+
 | RD000D3A21FA6D            |  121 | 29/05/15 | 07:37:01 | 7.973E+01 |
 |                           |  122 | 29/05/15 | 07:37:01 | 7.973E+01 |
 |                           |  123 | 29/05/15 | 07:37:01 | 7.973E+01 |
 |                           |  124 | 29/05/15 | 07:37:01 | 7.973E+01 |
 |                           |  125 | 29/05/15 | 07:37:01 | 7.973E+01 |
 |                           |  126 | 29/05/15 | 07:37:01 | 7.973E+01 |
 |                           |  127 | 29/05/15 | 07:37:01 | 7.973E+01 |
 |                           |  128 | 29/05/15 | 07:37:01 | 7.973E+01 |
 +---------------------------+------+----------+----------+-----------+
 | RD000D3A21FA6F            |  129 | 29/05/15 | 07:37:01 | 4.559E+01 |
 |                           |  130 | 29/05/15 | 07:37:01 | 4.559E+01 |
 |                           |  131 | 29/05/15 | 07:37:01 | 4.559E+01 |
 |                           |  132 | 29/05/15 | 07:37:01 | 4.559E+01 |
 |                           |  133 | 29/05/15 | 07:37:01 | 4.559E+01 |
 |                           |  134 | 29/05/15 | 07:37:01 | 4.559E+01 |
 |                           |  135 | 29/05/15 | 07:37:01 | 4.559E+01 |
 |                           |  136 | 29/05/15 | 07:37:01 | 4.559E+01 |
 +---------------------------+------+----------+----------+-----------+
 | RD000D3A21FDA9            |  137 | 29/05/15 | 07:37:02 | 4.609E+01 |
 |                           |  138 | 29/05/15 | 07:37:02 | 4.609E+01 |
 |                           |  139 | 29/05/15 | 07:37:02 | 4.609E+01 |
 |                           |  140 | 29/05/15 | 07:37:02 | 4.609E+01 |
 |                           |  141 | 29/05/15 | 07:37:02 | 4.609E+01 |
 |                           |  142 | 29/05/15 | 07:37:02 | 4.609E+01 |
 |                           |  143 | 29/05/15 | 07:37:02 | 4.609E+01 |
 |                           |  144 | 29/05/15 | 07:37:02 | 4.609E+01 |
 +---------------------------+------+----------+----------+-----------+
 | RD000D3A21F990            |  145 | 29/05/15 | 07:37:01 | 7.669E+01 |
 |                           |  146 | 29/05/15 | 07:37:01 | 7.669E+01 |
 |                           |  147 | 29/05/15 | 07:37:01 | 7.669E+01 |
 |                           |  148 | 29/05/15 | 07:37:01 | 7.669E+01 |
 |                           |  149 | 29/05/15 | 07:37:01 | 7.669E+01 |
 |                           |  150 | 29/05/15 | 07:37:01 | 7.669E+01 |
 |                           |  151 | 29/05/15 | 07:37:01 | 7.669E+01 |
 |                           |  152 | 29/05/15 | 07:37:01 | 7.669E+01 |
 +---------------------------+------+----------+----------+-----------+
 | RD000D3A21FFEA            |  153 | 29/05/15 | 07:37:02 | 4.592E+01 |
 |                           |  154 | 29/05/15 | 07:37:02 | 4.592E+01 |
 |                           |  155 | 29/05/15 | 07:37:02 | 4.592E+01 |
 |                           |  156 | 29/05/15 | 07:37:02 | 4.592E+01 |
 |                           |  157 | 29/05/15 | 07:37:02 | 4.592E+01 |
 |                           |  158 | 29/05/15 | 07:37:02 | 4.592E+01 |
 |                           |  159 | 29/05/15 | 07:37:02 | 4.592E+01 |
 |                           |  160 | 29/05/15 | 07:37:02 | 4.592E+01 |
 +---------------------------+------+----------+----------+-----------+
 | RD000D3A21F436            |  161 | 29/05/15 | 07:37:01 | 5.972E+01 |
 |                           |  162 | 29/05/15 | 07:37:01 | 5.972E+01 |
 |                           |  163 | 29/05/15 | 07:37:01 | 5.972E+01 |
 |                           |  164 | 29/05/15 | 07:37:01 | 5.972E+01 |
 |                           |  165 | 29/05/15 | 07:37:01 | 5.972E+01 |
 |                           |  166 | 29/05/15 | 07:37:01 | 5.972E+01 |
 |                           |  167 | 29/05/15 | 07:37:01 | 5.972E+01 |
 |                           |  168 | 29/05/15 | 07:37:01 | 5.972E+01 |
 +---------------------------+------+----------+----------+-----------+
 | RD000D3A21FC15            |  169 | 29/05/15 | 07:37:01 | 8.898E+01 |
 |                           |  170 | 29/05/15 | 07:37:01 | 8.898E+01 |
 |                           |  171 | 29/05/15 | 07:37:01 | 8.898E+01 |
 |                           |  172 | 29/05/15 | 07:37:01 | 8.898E+01 |
 |                           |  173 | 29/05/15 | 07:37:01 | 8.898E+01 |
 |                           |  174 | 29/05/15 | 07:37:01 | 8.898E+01 |
 |                           |  175 | 29/05/15 | 07:37:01 | 8.898E+01 |
 |                           |  176 | 29/05/15 | 07:37:01 | 8.898E+01 |
 +---------------------------+------+----------+----------+-----------+
 | RD000D3A21FB9A            |  177 | 29/05/15 | 07:37:02 | 7.307E+01 |
 |                           |  178 | 29/05/15 | 07:37:02 | 7.307E+01 |
 |                           |  179 | 29/05/15 | 07:37:02 | 7.307E+01 |
 |                           |  180 | 29/05/15 | 07:37:02 | 7.307E+01 |
 |                           |  181 | 29/05/15 | 07:37:02 | 7.307E+01 |
 |                           |  182 | 29/05/15 | 07:37:02 | 7.307E+01 |
 |                           |  183 | 29/05/15 | 07:37:02 | 7.307E+01 |
 |                           |  184 | 29/05/15 | 07:37:02 | 7.307E+01 |
 +---------------------------+------+----------+----------+-----------+
 | RD000D3A21F854            |  185 | 29/05/15 | 07:37:01 | 5.992E+01 |
 |                           |  186 | 29/05/15 | 07:37:01 | 5.992E+01 |
 |                           |  187 | 29/05/15 | 07:37:01 | 5.992E+01 |
 |                           |  188 | 29/05/15 | 07:37:01 | 5.992E+01 |
 |                           |  189 | 29/05/15 | 07:37:01 | 5.992E+01 |
 |                           |  190 | 29/05/15 | 07:37:01 | 5.992E+01 |
 |                           |  191 | 29/05/15 | 07:37:01 | 5.992E+01 |
 |                           |  192 | 29/05/15 | 07:37:01 | 5.992E+01 |
 +---------------------------+------+----------+----------+-----------+
 | RD000D3A21F25F            |  193 | 29/05/15 | 07:37:02 | 4.660E+01 |
 |                           |  194 | 29/05/15 | 07:37:02 | 4.660E+01 |
 |                           |  195 | 29/05/15 | 07:37:02 | 4.660E+01 |
 |                           |  196 | 29/05/15 | 07:37:02 | 4.660E+01 |
 |                           |  197 | 29/05/15 | 07:37:02 | 4.660E+01 |
 |                           |  198 | 29/05/15 | 07:37:02 | 4.660E+01 |
 |                           |  199 | 29/05/15 | 07:37:02 | 4.660E+01 |
 |                           |  200 | 29/05/15 | 07:37:02 | 4.660E+01 |
 +---------------------------+------+----------+----------+-----------+
 | RD000D3A21F7A7            |  201 | 29/05/15 | 07:37:02 | 4.592E+01 |
 |                           |  202 | 29/05/15 | 07:37:02 | 4.592E+01 |
 |                           |  203 | 29/05/15 | 07:37:02 | 4.592E+01 |
 |                           |  204 | 29/05/15 | 07:37:02 | 4.592E+01 |
 |                           |  205 | 29/05/15 | 07:37:02 | 4.592E+01 |
 |                           |  206 | 29/05/15 | 07:37:02 | 4.592E+01 |
 |                           |  207 | 29/05/15 | 07:37:02 | 4.592E+01 |
 |                           |  208 | 29/05/15 | 07:37:02 | 4.592E+01 |
 +---------------------------+------+----------+----------+-----------+
 | RD000D3A21FA60            |  209 | 29/05/15 | 07:37:02 | 6.477E+01 |
 |                           |  210 | 29/05/15 | 07:37:02 | 6.477E+01 |
 |                           |  211 | 29/05/15 | 07:37:02 | 6.477E+01 |
 |                           |  212 | 29/05/15 | 07:37:02 | 6.477E+01 |
 |                           |  213 | 29/05/15 | 07:37:02 | 6.477E+01 |
 |                           |  214 | 29/05/15 | 07:37:02 | 6.477E+01 |
 |                           |  215 | 29/05/15 | 07:37:02 | 6.477E+01 |
 |                           |  216 | 29/05/15 | 07:37:02 | 6.477E+01 |
 +---------------------------+------+----------+----------+-----------+
 | RD000D3A21FEFD            |  217 | 29/05/15 | 07:37:01 | 4.781E+01 |
 |                           |  218 | 29/05/15 | 07:37:01 | 4.781E+01 |
 |                           |  219 | 29/05/15 | 07:37:01 | 4.781E+01 |
 |                           |  220 | 29/05/15 | 07:37:01 | 4.781E+01 |
 |                           |  221 | 29/05/15 | 07:37:01 | 4.781E+01 |
 |                           |  222 | 29/05/15 | 07:37:01 | 4.781E+01 |
 |                           |  223 | 29/05/15 | 07:37:01 | 4.781E+01 |
 |                           |  224 | 29/05/15 | 07:37:01 | 4.781E+01 |
 +---------------------------+------+----------+----------+-----------+
 | RD000D3A21FC08            |  225 | 29/05/15 | 07:37:02 | 4.619E+01 |
 |                           |  226 | 29/05/15 | 07:37:02 | 4.619E+01 |
 |                           |  227 | 29/05/15 | 07:37:02 | 4.619E+01 |
 |                           |  228 | 29/05/15 | 07:37:02 | 4.619E+01 |
 |                           |  229 | 29/05/15 | 07:37:02 | 4.619E+01 |
 |                           |  230 | 29/05/15 | 07:37:02 | 4.619E+01 |
 |                           |  231 | 29/05/15 | 07:37:02 | 4.619E+01 |
 |                           |  232 | 29/05/15 | 07:37:02 | 4.619E+01 |
 +---------------------------+------+----------+----------+-----------+
 | RD000D3A21F275            |  233 | 29/05/15 | 07:37:02 | 8.018E+01 |
 |                           |  234 | 29/05/15 | 07:37:02 | 8.018E+01 |
 |                           |  235 | 29/05/15 | 07:37:02 | 8.018E+01 |
 |                           |  236 | 29/05/15 | 07:37:02 | 8.018E+01 |
 |                           |  237 | 29/05/15 | 07:37:02 | 8.018E+01 |
 |                           |  238 | 29/05/15 | 07:37:02 | 8.018E+01 |
 |                           |  239 | 29/05/15 | 07:37:02 | 8.018E+01 |
 |                           |  240 | 29/05/15 | 07:37:02 | 8.018E+01 |
 +---------------------------+------+----------+----------+-----------+
 | RD000D3A21F95A            |  241 | 29/05/15 | 07:37:01 | 5.873E+01 |
 |                           |  242 | 29/05/15 | 07:37:01 | 5.873E+01 |
 |                           |  243 | 29/05/15 | 07:37:01 | 5.873E+01 |
 |                           |  244 | 29/05/15 | 07:37:01 | 5.873E+01 |
 |                           |  245 | 29/05/15 | 07:37:01 | 5.873E+01 |
 |                           |  246 | 29/05/15 | 07:37:01 | 5.873E+01 |
 |                           |  247 | 29/05/15 | 07:37:01 | 5.873E+01 |
 |                           |  248 | 29/05/15 | 07:37:01 | 5.873E+01 |
 +---------------------------+------+----------+----------+-----------+
 | RD000D3A21F4A5            |  249 | 29/05/15 | 07:37:02 | 6.656E+01 |
 |                           |  250 | 29/05/15 | 07:37:02 | 6.656E+01 |
 |                           |  251 | 29/05/15 | 07:37:02 | 6.656E+01 |
 |                           |  252 | 29/05/15 | 07:37:02 | 6.656E+01 |
 |                           |  253 | 29/05/15 | 07:37:02 | 6.656E+01 |
 |                           |  254 | 29/05/15 | 07:37:02 | 6.656E+01 |
 |                           |  255 | 29/05/15 | 07:37:02 | 6.656E+01 |
 |                           |  256 | 29/05/15 | 07:37:02 | 6.656E+01 |
 +---------------------------+------+----------+----------+-----------+

 Total wall clock time: 4.458E+01 seconds
             or: (          0:         0:         0:    44.575 )
                 (       Days:     Hours:   Minutes:   Seconds )



 --> Final synchronization point reached by all partitions.
End of solution stage.

 +--------------------------------------------------------------------+
 | The results from this run of the ANSYS CFX Solver have been        |
 | written to                                                         |
 | \\10.10.13.6\C\Resources\directory\3301acebc8f4463d990a819988261b- |
 | b5.HSR.AzureEE.HpcWorkerRole.jobdata\job-5\pipe01_001.res          |
 +--------------------------------------------------------------------+


This run of the ANSYS CFX Solver has finished.
