 This run of the CFX-15.0.7 Solver started at 12:24:24 on 20 May 2015 by
 user MpiUser on RD000D3A203DCB (intel_xeon64.sse2_winnt) using the
 command:
 
  "\\hsransys.file.core.windows.net\main\apps\ANSYS Inc\v150\CFX\bin\perllib\cfx5solve.pl"
    -def pipe01.def -chdir
    \\10.10.13.13\C\Resources\directory\6856915b948b44a6bdefbb45beb7e8dd.HSR.AzureEE.HpcWorkerRole.jobdata\job-5
    -start-method MSMPI2 -part 64
 
 Point Releases and Patches installed:
 
  ANSYS, Inc. Products 15.0.7
  ANSYS Mechanical Products 15.0.7
  ANSYS Autodyn 15.0.7
  ANSYS LS-DYNA 15.0.7
  ANSYS CFX (includes ANSYS CFD-Post) 15.0.7
  ANSYS Fluent (includes ANSYS CFD-Post) 15.0.7
  ANSYS TurboGrid 15.0.7
  ANSYS Polyflow (includes ANSYS CFD-Post) 15.0.7
  ANSYS Aqwa 15.0.7
  ANSYS ICEM CFD 15.0.7
  ANSYS Icepak (includes ANSYS CFD-Post) 15.0.7
  Catia, Version 6 15.0.7
  ANSYS, Inc. License Manager 15.0.7
 
 Setting up CFX Solver run ...
 

 +--------------------------------------------------------------------+
 |                              Warning!                              |
 |                                                                    |
 | The working directory is a UNC path, but the Windows command shell |
 | is currently not configured to support UNC paths. This may cause   |
 | failure of the CFX Solver.                                         |
 |                                                                    |
 | Command shell support for UNC paths can be enabled by setting the  |
 | Windows registry key DisableUNCCheck.                              |
 +--------------------------------------------------------------------+


 +--------------------------------------------------------------------+
 |                                                                    |
 |                    CFX Command Language Upgrade                    |
 |                                                                    |
 +--------------------------------------------------------------------+

 Added /SIMULATION CONTROL/EXECUTION CONTROL/EXECUTABLE SELECTION/Double
 Precision = Off.
 

 +--------------------------------------------------------------------+
 |                                                                    |
 |                    CFX Command Language for Run                    |
 |                                                                    |
 +--------------------------------------------------------------------+

 LIBRARY:
   MATERIAL: Air at 25 C
     Material Description = Air at 25 C and 1 atm (dry)
     Material Group = Air Data, Constant Property Gases
     Option = Pure Substance
     Thermodynamic State = Gas
     PROPERTIES:
       Option = General Material
       EQUATION OF STATE:
         Density = 1.185 [kg m^-3]
         Molar Mass = 28.96 [kg kmol^-1]
         Option = Value
       END
       SPECIFIC HEAT CAPACITY:
         Option = Value
         Specific Heat Capacity = 1.0044E+03 [J kg^-1 K^-1]
         Specific Heat Type = Constant Pressure
       END
       REFERENCE STATE:
         Option = Specified Point
         Reference Pressure = 1 [atm]
         Reference Specific Enthalpy = 0. [J/kg]
         Reference Specific Entropy = 0. [J/kg/K]
         Reference Temperature = 25 [C]
       END
       DYNAMIC VISCOSITY:
         Dynamic Viscosity = 1.831E-05 [kg m^-1 s^-1]
         Option = Value
       END
       THERMAL CONDUCTIVITY:
         Option = Value
         Thermal Conductivity = 2.61E-02 [W m^-1 K^-1]
       END
       ABSORPTION COEFFICIENT:
         Absorption Coefficient = 0.01 [m^-1]
         Option = Value
       END
       SCATTERING COEFFICIENT:
         Option = Value
         Scattering Coefficient = 0.0 [m^-1]
       END
       REFRACTIVE INDEX:
         Option = Value
         Refractive Index = 1.0 [m m^-1]
       END
       THERMAL EXPANSIVITY:
         Option = Value
         Thermal Expansivity = 0.003356 [K^-1]
       END
     END
   END
 END
 FLOW: Flow Analysis 1
   SOLUTION UNITS:
     Angle Units = [rad]
     Length Units = [m]
     Mass Units = [kg]
     Solid Angle Units = [sr]
     Temperature Units = [K]
     Time Units = [s]
   END
   ANALYSIS TYPE:
     Option = Steady State
     EXTERNAL SOLVER COUPLING:
       Option = None
     END
   END
   DOMAIN: Default Domain
     Coord Frame = Coord 0
     Domain Type = Fluid
     Location = B16
     BOUNDARY: Default Domain Default
       Boundary Type = WALL
       Location = F17.16,F18.16,F19.16
       BOUNDARY CONDITIONS:
         MASS AND MOMENTUM:
           Option = No Slip Wall
         END
         WALL ROUGHNESS:
           Option = Smooth Wall
         END
       END
     END
     BOUNDARY: Inlet
       Boundary Type = INLET
       Location = Inlet
       BOUNDARY CONDITIONS:
         FLOW REGIME:
           Option = Subsonic
         END
         MASS AND MOMENTUM:
           Normal Speed = 0.01 [m s^-1]
           Option = Normal Speed
         END
         TURBULENCE:
           Option = Medium Intensity and Eddy Viscosity Ratio
         END
       END
     END
     BOUNDARY: Outlet
       Boundary Type = OUTLET
       Location = Outlet
       BOUNDARY CONDITIONS:
         FLOW REGIME:
           Option = Subsonic
         END
         MASS AND MOMENTUM:
           Option = Average Static Pressure
           Pressure Profile Blend = 0.05
           Relative Pressure = 0 [Pa]
         END
         PRESSURE AVERAGING:
           Option = Average Over Whole Outlet
         END
       END
     END
     BOUNDARY: Symmetry
       Boundary Type = SYMMETRY
       Location = Symmetry
     END
     DOMAIN MODELS:
       BUOYANCY MODEL:
         Option = Non Buoyant
       END
       DOMAIN MOTION:
         Option = Stationary
       END
       MESH DEFORMATION:
         Option = None
       END
       REFERENCE PRESSURE:
         Reference Pressure = 1 [atm]
       END
     END
     FLUID DEFINITION: Fluid 1
       Material = Air at 25 C
       Option = Material Library
       MORPHOLOGY:
         Option = Continuous Fluid
       END
     END
     FLUID MODELS:
       COMBUSTION MODEL:
         Option = None
       END
       HEAT TRANSFER MODEL:
         Fluid Temperature = 25 [C]
         Option = Isothermal
       END
       THERMAL RADIATION MODEL:
         Option = None
       END
       TURBULENCE MODEL:
         Option = k epsilon
       END
       TURBULENT WALL FUNCTIONS:
         Option = Scalable
       END
     END
   END
   OUTPUT CONTROL:
     RESULTS:
       File Compression Level = Default
       Option = Standard
     END
   END
   SOLVER CONTROL:
     Turbulence Numerics = First Order
     ADVECTION SCHEME:
       Option = High Resolution
     END
     CONVERGENCE CONTROL:
       Length Scale Option = Conservative
       Maximum Number of Iterations = 100
       Minimum Number of Iterations = 1
       Timescale Control = Auto Timescale
       Timescale Factor = 1.0
     END
     CONVERGENCE CRITERIA:
       Residual Target = 1.E-4
       Residual Type = RMS
     END
     DYNAMIC MODEL CONTROL:
       Global Dynamic Model Control = On
     END
   END
 END
 COMMAND FILE:
   Version = 15.0
   Results Version = 15.0.7
 END
 SIMULATION CONTROL:
   EXECUTION CONTROL:
     EXECUTABLE SELECTION:
       Double Precision = Off
     END
     PARALLEL HOST LIBRARY:
       HOST DEFINITION: rd000d3a203dcb
         Host Architecture String = winnt-amd64
         Installation Root = \\hsransys.file.core.windows.net\main\apps\ANSYS \
           Inc\v%v\CFX
       END
     END
     PARTITIONER STEP CONTROL:
       PARTITIONING TYPE:
         Option = MeTiS
         MeTiS Type = k-way
         Partition Size Rule = Automatic
         Partition Weight Factors = 0.01563, 0.01563, 0.01563, 0.01563, \
           0.01563, 0.01563, 0.01563, 0.01563, 0.01563, 0.01563, 0.01563, \
           0.01563, 0.01563, 0.01563, 0.01563, 0.01563, 0.01563, 0.01563, \
           0.01563, 0.01563, 0.01563, 0.01563, 0.01563, 0.01563, 0.01563, \
           0.01563, 0.01563, 0.01563, 0.01563, 0.01563, 0.01563, 0.01563, \
           0.01563, 0.01563, 0.01563, 0.01563, 0.01563, 0.01563, 0.01563, \
           0.01563, 0.01563, 0.01563, 0.01563, 0.01563, 0.01563, 0.01563, \
           0.01563, 0.01563, 0.01563, 0.01563, 0.01563, 0.01563, 0.01563, \
           0.01563, 0.01563, 0.01563, 0.01563, 0.01563, 0.01563, 0.01563, \
           0.01563, 0.01563, 0.01563, 0.01563
       END
     END
     RUN DEFINITION:
       Solver Input File = \
         \\10.10.13.13\C\Resources\directory\6856915b948b44a6bdefbb45beb7e8dd.\
         HSR.AzureEE.HpcWorkerRole.jobdata\job-5\pipe01.def
       Run Mode = Full
     END
     SOLVER STEP CONTROL:
       PARALLEL ENVIRONMENT:
         Start Method = MSMPI2
         Number of Processes = 64
         Parallel Host List = rd000d3a203dcb*64
       END
     END
   END
 END
 

 +--------------------------------------------------------------------+
 |                                                                    |
 |                            Partitioning                            |
 |                                                                    |
 +--------------------------------------------------------------------+




 +--------------------------------------------------------------------+
 |                                                                    |
 |                 ANSYS(R) CFX(R) Partitioner 15.0.7                 |
 |                                                                    |
 | Version 2014.04.10-23.00-131675     Thu Apr 10 23:23:37 GMTDT 2014 |
 |                                                                    |
 |                        Executable Attributes                       |
 |                                                                    |
 |          single-64bit-int32-supfort-optimised-noprof-lcomp         |
 |                                                                    |
 | (C) 2014 ANSYS, Inc.                                               |
 |                                                                    |
 | All rights reserved. Unauthorized use, distribution or duplication |
 | is prohibited. This product is subject to U.S. laws governing      |
 | export and re-export. For full Legal Notice, see documentation.    |
 +--------------------------------------------------------------------+




 +--------------------------------------------------------------------+
 |                  Job Information at Start of Run                   |
 +--------------------------------------------------------------------+

 Run mode:       partitioning run

 +------------------------------+------+--------+----------+----------+
 | Host                         | Mesh |  PID   |     Job Started     |
 |                              | Part |        | DD/MM/YY | hh:mm:ss |
 +------------------------------+------+--------+----------+----------+
 | RD000D3A203DCB               |    1 |   2656 | 20/05/15 | 12:24:33 |
 +------------------------------+------+--------+----------+----------+


 +--------------------------------------------------------------------+
 |        Memory Allocated for Run  (Actual usage may be less)        |
 +--------------------------------------------------------------------+

           | Real       | Integer    | Character | Logical  | Double
 ----------+------------+------------+-----------+----------+----------
 Mwords    |       1.05 |       1.55 |      3.26 |     0.12 |     0.07
 Mbytes    |       4.00 |       5.91 |      3.11 |     0.46 |     0.52
 ----------+------------+------------+-----------+----------+----------


 +--------------------------------------------------------------------+
 |                  Host Memory Information (Mbytes)                  |
 +--------------------------------------------------------------------+
 |          Host           |     System     |   Allocated    |   %    |
 +-------------------------+----------------+----------------+--------+
 | RD000D3A203DCB          |     57343.55   |        13.99   |   0.02 |
 +-------------------------+----------------+----------------+--------+

 +--------------------------------------------------------------------+
 |                          Mesh Statistics                           |
 +--------------------------------------------------------------------+

 Domain Name : Default Domain

     Total Number of Nodes                                =        8478

     Total Number of Elements                             =        5634
         Total Number of Hexahedrons                      =        5634

     Total Number of Faces                                =        5044

 +--------------------------------------------------------------------+
 |                     Vertex Based Partitioning                      |
 +--------------------------------------------------------------------+

 Partitioning of domain: Default Domain

 - Partitioning tool:       MeTiS multilevel k-way algorithm
 - Number of partitions:            64
 - Number of graph-nodes:         8478
 - Number of graph-edges:        44534

 +--------------------------------------------------------------------+
 |                      Partitioning Information                      |
 +--------------------------------------------------------------------+

 Partitioning information for domain: Default Domain

        +------------------+------------------------+-----------------+
        |     Elements     |        Vertices        |     Faces       |
 +------+------------------+------------------------+-----------------+
 | Part |   Number     %   |   Number     %   %Ovlp |  Number     %   |
 +------+------------------+------------------------+-----------------+
 | Full |      5634        |      8478              |     5044        |
 +------+------------------+------------------------+-----------------+
 |    1 |       108    1.5 |       189    1.5  29.6 |       95    1.5 |
 |    2 |       110    1.6 |       195    1.5  30.3 |       98    1.6 |
 |    3 |       112    1.6 |       203    1.6  34.5 |       99    1.6 |
 |    4 |       115    1.6 |       203    1.6  33.0 |       99    1.6 |
 |    5 |       108    1.5 |       189    1.5  28.6 |       96    1.5 |
 |    6 |       106    1.5 |       188    1.5  31.4 |       94    1.5 |
 |    7 |       108    1.5 |       195    1.5  34.4 |       95    1.5 |
 |    8 |       108    1.5 |       193    1.5  33.2 |       94    1.5 |
 |    9 |       111    1.6 |       201    1.6  34.8 |       98    1.6 |
 |   10 |       113    1.6 |       204    1.6  34.3 |      100    1.6 |
 |   11 |       105    1.5 |       190    1.5  32.6 |       96    1.5 |
 |   12 |       114    1.6 |       200    1.6  32.5 |       96    1.5 |
 |   13 |       108    1.5 |       192    1.5  31.8 |       95    1.5 |
 |   14 |       107    1.5 |       188    1.5  30.3 |       94    1.5 |
 |   15 |       110    1.6 |       196    1.5  31.6 |       98    1.6 |
 |   16 |       111    1.6 |       196    1.5  30.6 |       98    1.6 |
 |   17 |       110    1.6 |       198    1.6  35.4 |       93    1.5 |
 |   18 |       116    1.6 |       204    1.6  33.3 |       98    1.6 |
 |   19 |       109    1.5 |       198    1.6  35.4 |       97    1.6 |
 |   20 |       108    1.5 |       194    1.5  34.0 |       94    1.5 |
 |   21 |        89    1.3 |       161    1.3  18.6 |       96    1.5 |
 |   22 |       112    1.6 |       209    1.7  35.4 |      105    1.7 |
 |   23 |       121    1.7 |       213    1.7  36.2 |       96    1.5 |
 |   24 |       114    1.6 |       212    1.7  37.7 |      103    1.7 |
 |   25 |       117    1.7 |       209    1.7  34.9 |       99    1.6 |
 |   26 |       112    1.6 |       199    1.6  32.2 |       98    1.6 |
 |   27 |       112    1.6 |       197    1.6  33.0 |       94    1.5 |
 |   28 |       113    1.6 |       205    1.6  34.6 |      100    1.6 |
 |   29 |       121    1.7 |       237    1.9  44.3 |      111    1.8 |
 |   30 |       123    1.7 |       218    1.7  38.1 |       94    1.5 |
 |   31 |       107    1.5 |       188    1.5  30.9 |       94    1.5 |
 |   32 |       108    1.5 |       197    1.6  34.0 |       98    1.6 |
 |   33 |       113    1.6 |       200    1.6  33.5 |       96    1.5 |
 |   34 |       107    1.5 |       193    1.5  33.7 |       95    1.5 |
 |   35 |       109    1.5 |       200    1.6  34.5 |      100    1.6 |
 |   36 |       113    1.6 |       200    1.6  33.0 |       96    1.5 |
 |   37 |       110    1.6 |       195    1.5  30.8 |       98    1.6 |
 |   38 |       106    1.5 |       190    1.5  32.6 |       94    1.5 |
 |   39 |       111    1.6 |       199    1.6  32.2 |      100    1.6 |
 |   40 |       113    1.6 |       199    1.6  32.2 |       96    1.5 |
 |   41 |       110    1.6 |       197    1.6  33.5 |       96    1.5 |
 |   42 |       112    1.6 |       199    1.6  32.2 |       98    1.6 |
 |   43 |       116    1.6 |       205    1.6  33.7 |       98    1.6 |
 |   44 |       111    1.6 |       198    1.6  32.3 |       98    1.6 |
 |   45 |       113    1.6 |       205    1.6  34.6 |      100    1.6 |
 |   46 |       109    1.5 |       198    1.6  35.4 |       96    1.5 |
 |   47 |       115    1.6 |       206    1.6  34.0 |      101    1.6 |
 |   48 |       116    1.6 |       208    1.6  35.6 |       99    1.6 |
 |   49 |       107    1.5 |       188    1.5  30.3 |       94    1.5 |
 |   50 |       108    1.5 |       189    1.5  29.6 |       95    1.5 |
 |   51 |       108    1.5 |       192    1.5  31.2 |       96    1.5 |
 |   52 |       108    1.5 |       198    1.6  34.8 |       98    1.6 |
 |   53 |       112    1.6 |       199    1.6  32.2 |       98    1.6 |
 |   54 |       113    1.6 |       200    1.6  33.0 |       97    1.6 |
 |   55 |       114    1.6 |       201    1.6  32.3 |       98    1.6 |
 |   56 |       109    1.5 |       196    1.5  34.2 |       95    1.5 |
 |   57 |       110    1.6 |       195    1.5  30.8 |       98    1.6 |
 |   58 |       107    1.5 |       188    1.5  30.3 |       94    1.5 |
 |   59 |        96    1.4 |       177    1.4  24.3 |      100    1.6 |
 |   60 |       114    1.6 |       202    1.6  32.7 |       98    1.6 |
 |   61 |       111    1.6 |       203    1.6  36.9 |       97    1.6 |
 |   62 |       106    1.5 |       190    1.5  32.6 |       94    1.5 |
 |   63 |       110    1.6 |       195    1.5  30.8 |       98    1.6 |
 |   64 |       109    1.5 |       198    1.6  35.4 |       96    1.5 |
 +------+------------------+------------------------+-----------------+
 | Min  |        89    1.3 |       161    1.3  18.6 |       93    1.5 |
 |(part)|           (   21)|           (   21    21)|          (   17)|
 +------+------------------+------------------------+-----------------+
 | Max  |       123    1.7 |       237    1.9  44.3 |      111    1.8 |
 |(part)|           (   30)|           (   29    29)|          (   29)|
 +------+------------------+------------------------+-----------------+
 | Ave  |       111    1.6 |       198    1.6  32.8 |       97    1.6 |
 +------+------------------+------------------------+-----------------+
 | Sum  |      7072  100.0 |     12664  100.0  33.1 |     6222  100.0 |
 +------+------------------+------------------------+-----------------+

 +--------------------------------------------------------------------+
 |                 Partitioning CPU-Time Requirements                 |
 +--------------------------------------------------------------------+
  
 - Preparations                                       1.700E-01 seconds
 - Low-level mesh partitioning                        9.400E-02 seconds
 - Global partitioning information                    0.000E+00 seconds
 - Element and face partitioning information          0.000E+00 seconds
 - Vertex partitioning information                    0.000E+00 seconds
 - Partitioning information compression               0.000E+00 seconds
 - Summed CPU-time for mesh partitioning              4.050E-01 seconds

 +--------------------------------------------------------------------+
 |                   Job Information at End of Run                    |
 +--------------------------------------------------------------------+

 +---------------------------+------+----------+----------+-----------+
 | Host                      | Mesh |     Job Finished    |    CPU    |
 |                           | Part | DD/MM/YY | hh:mm:ss |  seconds  |
 +---------------------------+------+----------+----------+-----------+
 | RD000D3A203DCB            |    1 | 20/05/15 | 12:24:38 | 6.428E+00 |
 +---------------------------+------+----------+----------+-----------+

 Total wall clock time: 4.882E+00 seconds
             or: (          0:         0:         0:     4.882 )
                 (       Days:     Hours:   Minutes:   Seconds )


 +--------------------------------------------------------------------+
 |                                                                    |
 |                               Solver                               |
 |                                                                    |
 +--------------------------------------------------------------------+




 +--------------------------------------------------------------------+
 |                                                                    |
 |                    ANSYS(R) CFX(R) Solver 15.0.7                   |
 |                                                                    |
 | Version 2014.04.10-23.00-131675     Thu Apr 10 23:23:23 GMTDT 2014 |
 |                                                                    |
 |                        Executable Attributes                       |
 |                                                                    |
 |          single-64bit-int32-supfort-optimised-noprof-lcomp         |
 |                                                                    |
 | (C) 2014 ANSYS, Inc.                                               |
 |                                                                    |
 | All rights reserved. Unauthorized use, distribution or duplication |
 | is prohibited. This product is subject to U.S. laws governing      |
 | export and re-export. For full Legal Notice, see documentation.    |
 +--------------------------------------------------------------------+




 +--------------------------------------------------------------------+
 |                  Job Information at Start of Run                   |
 +--------------------------------------------------------------------+

 Run mode:       parallel run (MS MPI)

 +------------------------------+------+--------+----------+----------+
 | Host                         | Mesh |  PID   |     Job Started     |
 |                              | Part |        | DD/MM/YY | hh:mm:ss |
 +------------------------------+------+--------+----------+----------+
 | RD000D3A203DCB               |    1 |   2016 | 20/05/15 | 12:25:01 |
 |                              |    2 |   3356 | 20/05/15 | 12:25:01 |
 |                              |    3 |   3340 | 20/05/15 | 12:25:01 |
 |                              |    4 |   3612 | 20/05/15 | 12:25:01 |
 |                              |    5 |   1468 | 20/05/15 | 12:25:01 |
 |                              |    6 |   1196 | 20/05/15 | 12:25:01 |
 |                              |    7 |   3992 | 20/05/15 | 12:25:01 |
 |                              |    8 |   3524 | 20/05/15 | 12:25:01 |
 +------------------------------+------+--------+----------+----------+
 | RD000D3A206D40               |    9 |   3824 | 20/05/15 | 12:25:01 |
 |                              |   10 |   2472 | 20/05/15 | 12:25:01 |
 |                              |   11 |   3832 | 20/05/15 | 12:25:01 |
 |                              |   12 |   2044 | 20/05/15 | 12:25:01 |
 |                              |   13 |   3964 | 20/05/15 | 12:25:01 |
 |                              |   14 |   3064 | 20/05/15 | 12:25:01 |
 |                              |   15 |   1184 | 20/05/15 | 12:25:01 |
 |                              |   16 |    428 | 20/05/15 | 12:25:01 |
 +------------------------------+------+--------+----------+----------+
 | RD000D3A207E88               |   17 |   3384 | 20/05/15 | 12:25:01 |
 |                              |   18 |    612 | 20/05/15 | 12:25:01 |
 |                              |   19 |   1312 | 20/05/15 | 12:25:01 |
 |                              |   20 |   4080 | 20/05/15 | 12:25:01 |
 |                              |   21 |   1704 | 20/05/15 | 12:25:01 |
 |                              |   22 |   3368 | 20/05/15 | 12:25:01 |
 |                              |   23 |   3144 | 20/05/15 | 12:25:01 |
 |                              |   24 |   3612 | 20/05/15 | 12:25:01 |
 +------------------------------+------+--------+----------+----------+
 | RD000D3A20748E               |   25 |   2256 | 20/05/15 | 12:25:00 |
 |                              |   26 |   3292 | 20/05/15 | 12:25:00 |
 |                              |   27 |   4060 | 20/05/15 | 12:25:00 |
 |                              |   28 |   1884 | 20/05/15 | 12:25:00 |
 |                              |   29 |   1924 | 20/05/15 | 12:25:00 |
 |                              |   30 |   3148 | 20/05/15 | 12:25:00 |
 |                              |   31 |   1104 | 20/05/15 | 12:25:00 |
 |                              |   32 |   1720 | 20/05/15 | 12:25:00 |
 +------------------------------+------+--------+----------+----------+
 | RD000D3A207384               |   33 |   3964 | 20/05/15 | 12:25:01 |
 |                              |   34 |   3116 | 20/05/15 | 12:25:01 |
 |                              |   35 |   2948 | 20/05/15 | 12:25:01 |
 |                              |   36 |    152 | 20/05/15 | 12:25:01 |
 |                              |   37 |     32 | 20/05/15 | 12:25:01 |
 |                              |   38 |   3696 | 20/05/15 | 12:25:01 |
 |                              |   39 |    924 | 20/05/15 | 12:25:01 |
 |                              |   40 |   3836 | 20/05/15 | 12:25:01 |
 +------------------------------+------+--------+----------+----------+
 | RD000D3A207853               |   41 |   1324 | 20/05/15 | 12:25:01 |
 |                              |   42 |   2192 | 20/05/15 | 12:25:01 |
 |                              |   43 |   2636 | 20/05/15 | 12:25:01 |
 |                              |   44 |   1276 | 20/05/15 | 12:25:01 |
 |                              |   45 |   1004 | 20/05/15 | 12:25:01 |
 |                              |   46 |   2536 | 20/05/15 | 12:25:01 |
 |                              |   47 |    404 | 20/05/15 | 12:25:01 |
 |                              |   48 |   3772 | 20/05/15 | 12:25:01 |
 +------------------------------+------+--------+----------+----------+
 | RD000D3A2076D4               |   49 |   3488 | 20/05/15 | 12:25:00 |
 |                              |   50 |   2868 | 20/05/15 | 12:25:00 |
 |                              |   51 |   3376 | 20/05/15 | 12:25:00 |
 |                              |   52 |   2020 | 20/05/15 | 12:25:00 |
 |                              |   53 |   3632 | 20/05/15 | 12:25:00 |
 |                              |   54 |   3424 | 20/05/15 | 12:25:00 |
 |                              |   55 |   1936 | 20/05/15 | 12:25:00 |
 |                              |   56 |   2904 | 20/05/15 | 12:25:00 |
 +------------------------------+------+--------+----------+----------+
 | RD000D3A207F55               |   57 |   1172 | 20/05/15 | 12:25:01 |
 |                              |   58 |   2880 | 20/05/15 | 12:25:01 |
 |                              |   59 |   3224 | 20/05/15 | 12:25:01 |
 |                              |   60 |   1440 | 20/05/15 | 12:25:01 |
 |                              |   61 |   4072 | 20/05/15 | 12:25:01 |
 |                              |   62 |    456 | 20/05/15 | 12:25:01 |
 |                              |   63 |    964 | 20/05/15 | 12:25:01 |
 |                              |   64 |   3100 | 20/05/15 | 12:25:01 |
 +------------------------------+------+--------+----------+----------+

 +--------------------------------------------------------------------+
 |                        License Information                         |
 +--------------------------------------------------------------------+
 
 License Cap:    ANSYS CFX Solver (Max 128K Nodes)
 License Cap:     Parallel
 License ID:     hsrAnsysLS-SYSTEM-320-029597


 +--------------------------------------------------------------------+
 |        Memory Allocated for Run  (Actual usage may be less)        |
 +--------------------------------------------------------------------+

 Allocated storage in:    Mwords
                          Mbytes

 Partition | Real       | Integer    | Character | Logical  | Double
 ----------+------------+------------+-----------+----------+----------
   Minimum |       1.65 |       1.67 |      3.71 |     0.12 |     0.08
  (    21) |       6.30 |       6.37 |      3.54 |     0.11 |     0.58
 ----------+------------+------------+-----------+----------+----------
   Maximum |       2.06 |       1.71 |      3.71 |     0.12 |     0.08
  (     1) |       7.86 |       6.53 |      3.54 |     0.11 |     0.58
 ----------+------------+------------+-----------+----------+----------
   Average |       1.79 |       1.67 |      3.71 |     0.12 |     0.08
           |       6.83 |       6.37 |      3.54 |     0.11 |     0.58
 ----------+------------+------------+-----------+----------+----------
     Total |     114.54 |     106.95 |    237.26 |     7.68 |     4.84
           |     436.95 |     407.96 |    226.27 |     7.32 |    36.92
 ----------+------------+------------+-----------+----------+----------


 +--------------------------------------------------------------------+
 |                  Host Memory Information (Mbytes)                  |
 +--------------------------------------------------------------------+
 |           Host         | Npart |   System    |  Allocated  |   %   |
 +------------------------+-------+-------------+-------------+-------+
 | RD000D3A203DCB         |    8  |    57343.55 |      140.31 |  0.24 |
 +------------------------+-------+-------------+-------------+-------+
 | RD000D3A206D40         |    8  |    57343.55 |      139.15 |  0.24 |
 +------------------------+-------+-------------+-------------+-------+
 | RD000D3A207E88         |    8  |    57343.55 |      139.16 |  0.24 |
 +------------------------+-------+-------------+-------------+-------+
 | RD000D3A20748E         |    8  |    57343.55 |      139.98 |  0.24 |
 +------------------------+-------+-------------+-------------+-------+
 | RD000D3A207384         |    8  |    57343.55 |      139.22 |  0.24 |
 +------------------------+-------+-------------+-------------+-------+
 | RD000D3A207853         |    8  |    57343.55 |      139.71 |  0.24 |
 +------------------------+-------+-------------+-------------+-------+
 | RD000D3A2076D4         |    8  |    57343.55 |      139.14 |  0.24 |
 +------------------------+-------+-------------+-------------+-------+
 | RD000D3A207F55         |    8  |    57343.55 |      138.77 |  0.24 |
 +------------------------+-------+-------------+-------------+-------+
 | Total                  |   64  |   458748.41 |     1115.43 |  0.24 |
 +------------------------+-------+-------------+-------------+-------+

 +--------------------------------------------------------------------+
 |                          Mesh Statistics                           |
 +--------------------------------------------------------------------+
 | Domain Name          | Orthog. Angle | Exp. Factor  | Aspect Ratio |
 +----------------------+---------------+--------------+--------------+
 |                      | Minimum [deg] |   Maximum    |    Maximum   |
 +----------------------+---------------+--------------+--------------+
 | Default Domain       |       69.3 OK |         4 OK |         4 OK |
 +----------------------+---------------+--------------+--------------+
 |                      |  %!  %ok  %OK | %!  %ok  %OK | %!  %ok  %OK |
 +----------------------+---------------+--------------+--------------+
 | Default Domain       |   0    0  100 |  0    0  100 |  0    0  100 |
 +----------------------+---------------+--------------+--------------+

 Domain Name : Default Domain

     Total Number of Nodes                                =        8478

     Total Number of Elements                             =        5634
         Total Number of Hexahedrons                      =        5634

     Total Number of Faces                                =        5044

 +--------------------------------------------------------------------+
 |                     Average Scale Information                      |
 +--------------------------------------------------------------------+

 Domain Name : Default Domain
     Global Length                                         = 8.6454E-02
     Minimum Extent                                        = 1.6000E-02
     Maximum Extent                                        = 8.3800E-01
     Density                                               = 1.1850E+00
     Dynamic Viscosity                                     = 1.8310E-05
     Velocity                                              = 8.1802E-03
     Advection Time                                        = 1.0569E+01
     Reynolds Number                                       = 4.5770E+01
 
 +--------------------------------------------------------------------+
 | ERROR #002100004 has occurred in subroutine Out_Scales_Flu.        |
 | Message:                                                           |
 | The Reynolds number is outside of the range expected based on the  |
 | Option selected for the TURBULENCE MODEL. Check this setting,      |
 | the values of the properties, mesh scale, consistency of units     |
 | and solution values in the input file. Execution will proceed.     |
 +--------------------------------------------------------------------+

 +--------------------------------------------------------------------+
 |                Checking for Isolated Fluid Regions                 |
 +--------------------------------------------------------------------+
 
 No isolated fluid regions were found.

 +--------------------------------------------------------------------+
 |              The Equations Solved in This Calculation              |
 +--------------------------------------------------------------------+

 Subsystem : Momentum and Mass

   U-Mom
   V-Mom
   W-Mom
   P-Mass

 Subsystem : TurbKE and Diss.K

   K-TurbKE
   E-Diss.K
                   
 CFD Solver started: Wed May 20 12:25:11 2015


 +--------------------------------------------------------------------+
 |                       Convergence History                          |
 +--------------------------------------------------------------------+

 ======================================================================
 |                        Timescale Information                       |
 ----------------------------------------------------------------------
 |       Equation       |         Type          |      Timescale      |
 +----------------------+-----------------------+---------------------+
 | U-Mom                | Auto Timescale        |     2.59362E+00     |
 | V-Mom                | Auto Timescale        |     2.59362E+00     |
 | W-Mom                | Auto Timescale        |     2.59362E+00     |
 +----------------------+-----------------------+---------------------+
 | K-TurbKE             | Auto Timescale        |     2.59362E+00     |
 | E-Diss.K             | Auto Timescale        |     2.59362E+00     |
 +----------------------+-----------------------+---------------------+

 ======================================================================
 OUTER LOOP ITERATION =    1                    CPU SECONDS = 8.801E+02
 ----------------------------------------------------------------------
 |       Equation       | Rate | RMS Res | Max Res |  Linear Solution |
 +----------------------+------+---------+---------+------------------+
 | U-Mom                | 0.00 | 4.9E-04 | 2.2E-03 |       1.8E+00  ok|
 | V-Mom                | 0.00 | 5.1E-04 | 2.2E-03 |       2.8E+00  ok|
 | W-Mom                | 0.00 | 1.4E-05 | 6.1E-05 |       1.6E+01  ok|
 | P-Mass               | 0.00 | 2.2E-02 | 9.3E-02 |  8.8  1.9E-02  OK|
 +----------------------+------+---------+---------+------------------+
 | K-TurbKE             | 0.00 | 2.5E-03 | 5.3E-02 | 10.1  3.8E-02  OK|
 | E-Diss.K             | 0.00 | 8.5E-02 | 1.0E+00 | 11.4  9.9E-03  OK|
 +----------------------+------+---------+---------+------------------+

 ======================================================================
 OUTER LOOP ITERATION =    2                    CPU SECONDS = 1.074E+03
 ----------------------------------------------------------------------
 |       Equation       | Rate | RMS Res | Max Res |  Linear Solution |
 +----------------------+------+---------+---------+------------------+
 | U-Mom                | 8.78 | 4.3E-03 | 3.6E-02 |       1.1E-01  ok|
 | V-Mom                | 8.89 | 4.5E-03 | 3.7E-02 |       1.3E-01  ok|
 | W-Mom                |99.99 | 2.5E-03 | 9.0E-03 |       4.6E-02  OK|
 | P-Mass               | 0.31 | 6.6E-03 | 1.2E-01 |  8.8  9.8E-02  OK|
 +----------------------+------+---------+---------+------------------+
 | K-TurbKE             | 0.20 | 4.9E-04 | 7.0E-03 | 14.7  5.0E-02  OK|
 | E-Diss.K             | 1.05 | 9.0E-02 | 9.7E-01 | 11.5  1.2E-02  OK|
 +----------------------+------+---------+---------+------------------+

 ======================================================================
 OUTER LOOP ITERATION =    3                    CPU SECONDS = 1.080E+03
 ----------------------------------------------------------------------
 |       Equation       | Rate | RMS Res | Max Res |  Linear Solution |
 +----------------------+------+---------+---------+------------------+
 | U-Mom                | 1.10 | 4.7E-03 | 4.8E-02 |       1.6E-02  OK|
 | V-Mom                | 1.07 | 4.8E-03 | 5.0E-02 |       2.4E-02  OK|
 | W-Mom                | 0.81 | 2.0E-03 | 9.0E-03 |       1.2E-02  OK|
 | P-Mass               | 0.35 | 2.3E-03 | 6.4E-02 | 16.7  4.4E-02  OK|
 +----------------------+------+---------+---------+------------------+
 | K-TurbKE             | 1.29 | 6.3E-04 | 6.1E-03 | 10.1  5.6E-02  OK|
 | E-Diss.K             | 0.57 | 5.1E-02 | 4.3E-01 | 11.6  9.9E-03  OK|
 +----------------------+------+---------+---------+------------------+

 ======================================================================
 OUTER LOOP ITERATION =    4                    CPU SECONDS = 1.088E+03
 ----------------------------------------------------------------------
 |       Equation       | Rate | RMS Res | Max Res |  Linear Solution |
 +----------------------+------+---------+---------+------------------+
 | U-Mom                | 0.58 | 2.8E-03 | 3.5E-02 |       2.2E-01  ok|
 | V-Mom                | 0.59 | 2.8E-03 | 3.1E-02 |       2.3E-01  ok|
 | W-Mom                | 0.68 | 1.4E-03 | 8.9E-03 |       7.4E-02  OK|
 | P-Mass               | 2.22 | 5.2E-03 | 8.4E-02 |  4.9  6.4E-02  OK|
 +----------------------+------+---------+---------+------------------+
 | K-TurbKE             | 1.59 | 1.0E-03 | 1.2E-02 | 10.1  2.8E-02  OK|
 | E-Diss.K             | 0.69 | 3.6E-02 | 4.0E-01 | 11.6  7.9E-03  OK|
 +----------------------+------+---------+---------+------------------+

 ======================================================================
 OUTER LOOP ITERATION =    5                    CPU SECONDS = 1.094E+03
 ----------------------------------------------------------------------
 |       Equation       | Rate | RMS Res | Max Res |  Linear Solution |
 +----------------------+------+---------+---------+------------------+
 | U-Mom                | 0.51 | 1.4E-03 | 2.1E-02 |       1.3E-01  ok|
 | V-Mom                | 0.50 | 1.4E-03 | 1.9E-02 |       1.4E-01  ok|
 | W-Mom                | 0.59 | 8.0E-04 | 5.6E-03 |       6.1E-02  OK|
 | P-Mass               | 1.10 | 5.7E-03 | 9.1E-02 |  4.9  6.5E-02  OK|
 +----------------------+------+---------+---------+------------------+
 | K-TurbKE             | 1.17 | 1.2E-03 | 1.8E-02 | 10.1  1.9E-02  OK|
 | E-Diss.K             | 1.37 | 4.9E-02 | 5.1E-01 | 11.7  7.2E-03  OK|
 +----------------------+------+---------+---------+------------------+

 ======================================================================
 |                        Timescale Information                       |
 ----------------------------------------------------------------------
 |       Equation       |         Type          |      Timescale      |
 +----------------------+-----------------------+---------------------+
 | U-Mom                | Auto Timescale        |     2.58489E+00     |
 | V-Mom                | Auto Timescale        |     2.58489E+00     |
 | W-Mom                | Auto Timescale        |     2.58489E+00     |
 +----------------------+-----------------------+---------------------+
 | K-TurbKE             | Auto Timescale        |     2.58489E+00     |
 | E-Diss.K             | Auto Timescale        |     2.58489E+00     |
 +----------------------+-----------------------+---------------------+

 ======================================================================
 OUTER LOOP ITERATION =    6                    CPU SECONDS = 1.100E+03
 ----------------------------------------------------------------------
 |       Equation       | Rate | RMS Res | Max Res |  Linear Solution |
 +----------------------+------+---------+---------+------------------+
 | U-Mom                | 0.47 | 6.7E-04 | 1.3E-02 |       1.3E-01  ok|
 | V-Mom                | 0.46 | 6.6E-04 | 9.4E-03 |       1.4E-01  ok|
 | W-Mom                | 0.43 | 3.4E-04 | 2.6E-03 |       6.8E-02  OK|
 | P-Mass               | 0.57 | 3.2E-03 | 6.9E-02 |  4.9  3.8E-02  OK|
 +----------------------+------+---------+---------+------------------+
 | K-TurbKE             | 0.84 | 9.8E-04 | 1.1E-02 |  5.6  9.6E-02  OK|
 | E-Diss.K             | 0.93 | 4.5E-02 | 4.1E-01 | 11.7  7.3E-03  OK|
 +----------------------+------+---------+---------+------------------+

 ======================================================================
 OUTER LOOP ITERATION =    7                    CPU SECONDS = 1.106E+03
 ----------------------------------------------------------------------
 |       Equation       | Rate | RMS Res | Max Res |  Linear Solution |
 +----------------------+------+---------+---------+------------------+
 | U-Mom                | 0.54 | 3.6E-04 | 7.1E-03 |       1.1E-01  ok|
 | V-Mom                | 0.53 | 3.5E-04 | 4.9E-03 |       1.6E-01  ok|
 | W-Mom                | 0.53 | 1.8E-04 | 1.4E-03 |       5.5E-02  OK|
 | P-Mass               | 0.68 | 2.2E-03 | 4.6E-02 |  4.9  2.9E-02  OK|
 +----------------------+------+---------+---------+------------------+
 | K-TurbKE             | 0.84 | 8.3E-04 | 7.3E-03 |  5.6  9.1E-02  OK|
 | E-Diss.K             | 0.89 | 4.0E-02 | 3.2E-01 | 11.7  7.5E-03  OK|
 +----------------------+------+---------+---------+------------------+

 ======================================================================
 OUTER LOOP ITERATION =    8                    CPU SECONDS = 1.113E+03
 ----------------------------------------------------------------------
 |       Equation       | Rate | RMS Res | Max Res |  Linear Solution |
 +----------------------+------+---------+---------+------------------+
 | U-Mom                | 0.54 | 1.9E-04 | 4.0E-03 |       9.5E-02  OK|
 | V-Mom                | 0.55 | 1.9E-04 | 3.0E-03 |       1.9E-01  ok|
 | W-Mom                | 0.54 | 9.9E-05 | 6.8E-04 |       6.8E-02  OK|
 | P-Mass               | 0.54 | 1.2E-03 | 2.6E-02 |  4.9  3.1E-02  OK|
 +----------------------+------+---------+---------+------------------+
 | K-TurbKE             | 0.85 | 7.1E-04 | 6.4E-03 |  5.6  8.3E-02  OK|
 | E-Diss.K             | 0.90 | 3.6E-02 | 2.7E-01 | 11.7  7.5E-03  OK|
 +----------------------+------+---------+---------+------------------+

 ======================================================================
 OUTER LOOP ITERATION =    9                    CPU SECONDS = 1.119E+03
 ----------------------------------------------------------------------
 |       Equation       | Rate | RMS Res | Max Res |  Linear Solution |
 +----------------------+------+---------+---------+------------------+
 | U-Mom                | 0.61 | 1.2E-04 | 2.4E-03 |       9.4E-02  OK|
 | V-Mom                | 0.64 | 1.2E-04 | 2.3E-03 |       2.4E-01  ok|
 | W-Mom                | 0.65 | 6.4E-05 | 5.4E-04 |       6.4E-02  OK|
 | P-Mass               | 0.55 | 6.5E-04 | 1.3E-02 |  4.9  3.4E-02  OK|
 +----------------------+------+---------+---------+------------------+
 | K-TurbKE             | 0.87 | 6.1E-04 | 5.3E-03 |  5.5  7.6E-02  OK|
 | E-Diss.K             | 0.90 | 3.2E-02 | 2.3E-01 | 11.7  7.4E-03  OK|
 +----------------------+------+---------+---------+------------------+

 ======================================================================
 OUTER LOOP ITERATION =   10                    CPU SECONDS = 1.125E+03
 ----------------------------------------------------------------------
 |       Equation       | Rate | RMS Res | Max Res |  Linear Solution |
 +----------------------+------+---------+---------+------------------+
 | U-Mom                | 0.67 | 7.8E-05 | 1.6E-03 |       8.7E-02  OK|
 | V-Mom                | 0.73 | 9.1E-05 | 1.8E-03 |       2.7E-01  ok|
 | W-Mom                | 0.71 | 4.6E-05 | 5.1E-04 |       7.0E-02  OK|
 | P-Mass               | 0.51 | 3.3E-04 | 5.6E-03 |  4.9  4.7E-02  OK|
 +----------------------+------+---------+---------+------------------+
 | K-TurbKE             | 0.88 | 5.4E-04 | 4.2E-03 |  5.5  7.0E-02  OK|
 | E-Diss.K             | 0.90 | 2.9E-02 | 1.9E-01 | 11.7  7.1E-03  OK|
 +----------------------+------+---------+---------+------------------+

 ======================================================================
 |                        Timescale Information                       |
 ----------------------------------------------------------------------
 |       Equation       |         Type          |      Timescale      |
 +----------------------+-----------------------+---------------------+
 | U-Mom                | Auto Timescale        |     2.59362E+00     |
 | V-Mom                | Auto Timescale        |     2.59362E+00     |
 | W-Mom                | Auto Timescale        |     2.59362E+00     |
 +----------------------+-----------------------+---------------------+
 | K-TurbKE             | Auto Timescale        |     2.59362E+00     |
 | E-Diss.K             | Auto Timescale        |     2.59362E+00     |
 +----------------------+-----------------------+---------------------+

 ======================================================================
 OUTER LOOP ITERATION =   11                    CPU SECONDS = 1.132E+03
 ----------------------------------------------------------------------
 |       Equation       | Rate | RMS Res | Max Res |  Linear Solution |
 +----------------------+------+---------+---------+------------------+
 | U-Mom                | 0.74 | 5.7E-05 | 1.3E-03 |       8.6E-02  OK|
 | V-Mom                | 0.80 | 7.3E-05 | 1.5E-03 |       2.8E-01  ok|
 | W-Mom                | 0.74 | 3.3E-05 | 4.3E-04 |       7.7E-02  OK|
 | P-Mass               | 0.54 | 1.8E-04 | 2.1E-03 |  4.9  6.9E-02  OK|
 +----------------------+------+---------+---------+------------------+
 | K-TurbKE             | 0.89 | 4.8E-04 | 3.3E-03 |  5.6  6.7E-02  OK|
 | E-Diss.K             | 0.91 | 2.7E-02 | 1.7E-01 | 11.7  6.9E-03  OK|
 +----------------------+------+---------+---------+------------------+

 ======================================================================
 OUTER LOOP ITERATION =   12                    CPU SECONDS = 1.138E+03
 ----------------------------------------------------------------------
 |       Equation       | Rate | RMS Res | Max Res |  Linear Solution |
 +----------------------+------+---------+---------+------------------+
 | U-Mom                | 0.78 | 4.5E-05 | 1.1E-03 |       9.3E-02  OK|
 | V-Mom                | 0.83 | 6.0E-05 | 1.3E-03 |       2.8E-01  ok|
 | W-Mom                | 0.74 | 2.5E-05 | 3.4E-04 |       8.8E-02  OK|
 | P-Mass               | 0.57 | 1.0E-04 | 1.4E-03 |  4.9  9.7E-02  OK|
 +----------------------+------+---------+---------+------------------+
 | K-TurbKE             | 0.90 | 4.3E-04 | 2.5E-03 |  5.6  6.4E-02  OK|
 | E-Diss.K             | 0.91 | 2.4E-02 | 1.4E-01 | 11.7  6.6E-03  OK|
 +----------------------+------+---------+---------+------------------+

 ======================================================================
 OUTER LOOP ITERATION =   13                    CPU SECONDS = 1.145E+03
 ----------------------------------------------------------------------
 |       Equation       | Rate | RMS Res | Max Res |  Linear Solution |
 +----------------------+------+---------+---------+------------------+
 | U-Mom                | 0.81 | 3.6E-05 | 8.6E-04 |       5.8E-02  OK|
 | V-Mom                | 0.84 | 5.1E-05 | 1.1E-03 |       1.2E-01  ok|
 | W-Mom                | 0.74 | 1.8E-05 | 2.6E-04 |       3.4E-02  OK|
 | P-Mass               | 0.66 | 6.7E-05 | 1.1E-03 |  8.8  5.7E-02  OK|
 +----------------------+------+---------+---------+------------------+
 | K-TurbKE             | 0.90 | 3.9E-04 | 1.9E-03 |  5.5  6.2E-02  OK|
 | E-Diss.K             | 0.90 | 2.2E-02 | 1.2E-01 | 11.7  6.3E-03  OK|
 +----------------------+------+---------+---------+------------------+
                   
 CFD Solver finished: Wed May 20 12:25:15 2015
 CFD Solver wall clock seconds: 4.4480E+00

 ======================================================================
              Termination and Interrupt Condition Summary
 ======================================================================
    
 CFD Solver: All target criteria reached
   (Equation residuals)

 ======================================================================
              Boundary Flow and Total Source Term Summary
 ======================================================================

 +--------------------------------------------------------------------+
 |                               U-Mom                                |
 +--------------------------------------------------------------------+
 Boundary         : Default Domain Default                 -1.5672E-07
 Boundary         : Inlet                                   1.5844E-07
 Boundary         : Outlet                                 -3.0743E-12
                                                           -----------
 Domain Imbalance :                                         1.7131E-09

 +--------------------------------------------------------------------+
 |                               V-Mom                                |
 +--------------------------------------------------------------------+
 Boundary         : Default Domain Default                 -4.3941E-08
 Boundary         : Inlet                                  -1.2023E-12
 Boundary         : Outlet                                  4.6868E-08
                                                           -----------
 Domain Imbalance :                                         2.9266E-09

 +--------------------------------------------------------------------+
 |                               W-Mom                                |
 +--------------------------------------------------------------------+
 Boundary         : Default Domain Default                 -8.2721E-06
 Boundary         : Inlet                                   8.6788E-12
 Boundary         : Outlet                                 -2.5710E-11
 Boundary         : Symmetry                                8.2718E-06
                                                           -----------
 Domain Imbalance :                                        -2.7467E-10

 +--------------------------------------------------------------------+
 |                               P-Mass                               |
 +--------------------------------------------------------------------+
 Boundary         : Inlet                                   4.6871E-06
 Boundary         : Outlet                                 -4.6869E-06
                                                           -----------
 Domain Imbalance :                                         2.3783E-10


 +--------------------------------------------------------------------+
 |                     Normalised Imbalance Summary                   |
 +--------------------------------------------------------------------+
 |       Equation       |      Maximum Flow     |     Imbalance (%)   |
 +--------------------------------------------------------------------+
 | U-Mom                |       8.2721E-06      |        0.0207       |
 | V-Mom                |       8.2721E-06      |        0.0354       |
 | W-Mom                |       8.2721E-06      |       -0.0033       |
 | P-Mass               |       4.6871E-06      |        0.0051       |
 +----------------------+-----------------------+---------------------+

 ======================================================================
                     Wall Force and Moment Summary
 ======================================================================
                                                                          
 Notes:
 1. Pressure integrals exclude the reference pressure.  To include
    it, set the expert parameter 'include pref in forces = t'.


 +--------------------------------------------------------------------+
 |                      Pressure Force On Walls                       |
 +--------------------------------------------------------------------+
                                    X-Comp.      Y-Comp.      Z-Comp.

 Domain Group: Default Domain

 Default Domain Default           1.3352E-07   1.1308E-07   8.2721E-06
                                  -----------  -----------  -----------
 Domain Group Totals :            1.3352E-07   1.1308E-07   8.2721E-06


 +--------------------------------------------------------------------+
 |                       Viscous Force On Walls                       |
 +--------------------------------------------------------------------+
                                    X-Comp.      Y-Comp.      Z-Comp.

 Domain Group: Default Domain

 Default Domain Default           2.3203E-08  -6.9144E-08  -1.0569E-11
                                  -----------  -----------  -----------
 Domain Group Totals :            2.3203E-08  -6.9144E-08  -1.0569E-11


 +--------------------------------------------------------------------+
 |                      Pressure Moment On Walls                      |
 +--------------------------------------------------------------------+
                                    X-Comp.      Y-Comp.      Z-Comp.

 Domain Group: Default Domain

 Default Domain Default          -3.3343E-07   2.8949E-06   2.4387E-10
                                  -----------  -----------  -----------
 Domain Group Totals :           -3.3343E-07   2.8949E-06   2.4387E-10


 +--------------------------------------------------------------------+
 |                       Viscous Moment On Walls                      |
 +--------------------------------------------------------------------+
                                    X-Comp.      Y-Comp.      Z-Comp.

 Domain Group: Default Domain

 Default Domain Default           6.9679E-10   2.3273E-10  -2.7876E-11
                                  -----------  -----------  -----------
 Domain Group Totals :            6.9679E-10   2.3273E-10  -2.7876E-11


 +--------------------------------------------------------------------+
 |                   Locations of Maximum Residuals                   |
 +--------------------------------------------------------------------+
 |       Equation       |      Domain Name      |     Node Number     |
 +--------------------------------------------------------------------+
 | U-Mom                | Default Domain        |           5193      |
 | V-Mom                | Default Domain        |           5202      |
 | W-Mom                | Default Domain        |           6587      |
 | P-Mass               | Default Domain        |           5185      |
 +----------------------+-----------------------+---------------------+
 | K-TurbKE             | Default Domain        |           5201      |
 | E-Diss.K             | Default Domain        |           6478      |
 +----------------------+-----------------------+---------------------+

 ======================================================================
 |                     False Transient Information                    |
 +--------------------------------------------------------------------+
 |       Equation       |         Type          | Elapsed Pseudo-Time |
 +--------------------------------------------------------------------+
 | U-Mom                | Auto Timescale        |     3.36734E+01     |
 | V-Mom                | Auto Timescale        |     3.36734E+01     |
 | W-Mom                | Auto Timescale        |     3.36734E+01     |
 +----------------------+-----------------------+---------------------+
 | K-TurbKE             | Auto Timescale        |     3.36734E+01     |
 | E-Diss.K             | Auto Timescale        |     3.36734E+01     |
 +----------------------+-----------------------+---------------------+

 +--------------------------------------------------------------------+
 |                     Average Scale Information                      |
 +--------------------------------------------------------------------+

 Domain Name : Default Domain
     Global Length                                         = 8.6454E-02
     Minimum Extent                                        = 1.6000E-02
     Maximum Extent                                        = 8.3800E-01
     Density                                               = 1.1850E+00
     Dynamic Viscosity                                     = 1.8310E-05
     Velocity                                              = 9.9986E-03
     Advection Time                                        = 8.6466E+00
     Reynolds Number                                       = 5.5944E+01
 
 +--------------------------------------------------------------------+
 | ERROR #002100004 has occurred in subroutine Out_Scales_Flu.        |
 | Message:                                                           |
 | The Reynolds number is outside of the range expected based on the  |
 | Option selected for the TURBULENCE MODEL. Check this setting,      |
 | the values of the properties, mesh scale, consistency of units     |
 | and solution values in the input file. Execution will proceed.     |
 +--------------------------------------------------------------------+

 +--------------------------------------------------------------------+
 |                     Variable Range Information                     |
 +--------------------------------------------------------------------+

 Domain Name : Default Domain
 +--------------------------------------------------------------------+
 |      Variable Name                         |    min    |    max    |
 +--------------------------------------------------------------------+
 | Density                                    |  1.18E+00 |  1.18E+00 |
 | Specific Heat Capacity at Constant Pressure|  1.00E+03 |  1.00E+03 |
 | Dynamic Viscosity                          |  1.83E-05 |  1.83E-05 |
 | Thermal Conductivity                       |  2.61E-02 |  2.61E-02 |
 | Static Entropy                             |  0.00E+00 |  0.00E+00 |
 | Velocity u                                 | -1.03E-03 |  1.12E-02 |
 | Velocity v                                 | -1.45E-02 |  2.33E-04 |
 | Velocity w                                 | -2.97E-04 |  2.78E-04 |
 | Pressure                                   | -4.33E-06 |  2.85E-04 |
 | Turbulence Kinetic Energy                  |  3.75E-07 |  2.22E-05 |
 | Turbulence Eddy Dissipation                |  1.22E-10 |  6.48E-07 |
 | Eddy Viscosity                             |  6.20E-05 |  1.23E-04 |
 | Temperature                                |  2.98E+02 |  2.98E+02 |
 +--------------------------------------------------------------------+

 +--------------------------------------------------------------------+
 |           CPU Requirements of Numerical Solution - Total           |
 +--------------------------------------------------------------------+

 Subsystem Name                  Discretization       Linear Solution
                                (secs.   %total)     (secs.   %total) 
 ----------------------------------------------------------------------
 Momentum and Mass              9.95E+01   8.2 %     5.77E+01   4.8 %
 TurbKE and Diss.K              2.57E+01   2.1 %     4.24E+01   3.5 %
                                -------- -------     --------  ------
 Subsystem Summary              1.25E+02  10.3 %     1.00E+02   8.2 %

 Variable Updates               5.58E+01    4.6 %
 File Reading                   1.57E+01    1.3 %
 File Writing                   7.53E+00    0.6 %
 Miscellaneous                  9.09E+02   74.9 %
                                --------
 Total                          1.21E+03

 +--------------------------------------------------------------------+
 |                   Job Information at End of Run                    |
 +--------------------------------------------------------------------+

 +---------------------------+------+----------+----------+-----------+
 | Host                      | Mesh |     Job Finished    |    CPU    |
 |                           | Part | DD/MM/YY | hh:mm:ss |  seconds  |
 +---------------------------+------+----------+----------+-----------+
 | RD000D3A203DCB            |    1 | 20/05/15 | 12:25:16 | 2.428E+01 |
 |                           |    2 | 20/05/15 | 12:25:16 | 2.428E+01 |
 |                           |    3 | 20/05/15 | 12:25:16 | 2.428E+01 |
 |                           |    4 | 20/05/15 | 12:25:16 | 2.428E+01 |
 |                           |    5 | 20/05/15 | 12:25:16 | 2.428E+01 |
 |                           |    6 | 20/05/15 | 12:25:16 | 2.428E+01 |
 |                           |    7 | 20/05/15 | 12:25:16 | 2.428E+01 |
 |                           |    8 | 20/05/15 | 12:25:16 | 2.428E+01 |
 +---------------------------+------+----------+----------+-----------+
 | RD000D3A206D40            |    9 | 20/05/15 | 12:25:16 | 1.667E+01 |
 |                           |   10 | 20/05/15 | 12:25:16 | 1.667E+01 |
 |                           |   11 | 20/05/15 | 12:25:16 | 1.667E+01 |
 |                           |   12 | 20/05/15 | 12:25:16 | 1.667E+01 |
 |                           |   13 | 20/05/15 | 12:25:16 | 1.667E+01 |
 |                           |   14 | 20/05/15 | 12:25:16 | 1.667E+01 |
 |                           |   15 | 20/05/15 | 12:25:16 | 1.667E+01 |
 |                           |   16 | 20/05/15 | 12:25:16 | 1.667E+01 |
 +---------------------------+------+----------+----------+-----------+
 | RD000D3A207E88            |   17 | 20/05/15 | 12:25:16 | 1.700E+01 |
 |                           |   18 | 20/05/15 | 12:25:16 | 1.700E+01 |
 |                           |   19 | 20/05/15 | 12:25:16 | 1.700E+01 |
 |                           |   20 | 20/05/15 | 12:25:16 | 1.700E+01 |
 |                           |   21 | 20/05/15 | 12:25:16 | 1.700E+01 |
 |                           |   22 | 20/05/15 | 12:25:16 | 1.700E+01 |
 |                           |   23 | 20/05/15 | 12:25:16 | 1.700E+01 |
 |                           |   24 | 20/05/15 | 12:25:16 | 1.700E+01 |
 +---------------------------+------+----------+----------+-----------+
 | RD000D3A20748E            |   25 | 20/05/15 | 12:25:16 | 1.968E+01 |
 |                           |   26 | 20/05/15 | 12:25:16 | 1.968E+01 |
 |                           |   27 | 20/05/15 | 12:25:16 | 1.968E+01 |
 |                           |   28 | 20/05/15 | 12:25:16 | 1.968E+01 |
 |                           |   29 | 20/05/15 | 12:25:16 | 1.968E+01 |
 |                           |   30 | 20/05/15 | 12:25:16 | 1.968E+01 |
 |                           |   31 | 20/05/15 | 12:25:16 | 1.968E+01 |
 |                           |   32 | 20/05/15 | 12:25:16 | 1.968E+01 |
 +---------------------------+------+----------+----------+-----------+
 | RD000D3A207384            |   33 | 20/05/15 | 12:25:16 | 1.904E+01 |
 |                           |   34 | 20/05/15 | 12:25:16 | 1.904E+01 |
 |                           |   35 | 20/05/15 | 12:25:16 | 1.904E+01 |
 |                           |   36 | 20/05/15 | 12:25:16 | 1.904E+01 |
 |                           |   37 | 20/05/15 | 12:25:16 | 1.904E+01 |
 |                           |   38 | 20/05/15 | 12:25:16 | 1.904E+01 |
 |                           |   39 | 20/05/15 | 12:25:16 | 1.904E+01 |
 |                           |   40 | 20/05/15 | 12:25:16 | 1.904E+01 |
 +---------------------------+------+----------+----------+-----------+
 | RD000D3A207853            |   41 | 20/05/15 | 12:25:16 | 1.909E+01 |
 |                           |   42 | 20/05/15 | 12:25:16 | 1.909E+01 |
 |                           |   43 | 20/05/15 | 12:25:16 | 1.909E+01 |
 |                           |   44 | 20/05/15 | 12:25:16 | 1.909E+01 |
 |                           |   45 | 20/05/15 | 12:25:16 | 1.909E+01 |
 |                           |   46 | 20/05/15 | 12:25:16 | 1.909E+01 |
 |                           |   47 | 20/05/15 | 12:25:16 | 1.909E+01 |
 |                           |   48 | 20/05/15 | 12:25:16 | 1.909E+01 |
 +---------------------------+------+----------+----------+-----------+
 | RD000D3A2076D4            |   49 | 20/05/15 | 12:25:16 | 1.712E+01 |
 |                           |   50 | 20/05/15 | 12:25:16 | 1.712E+01 |
 |                           |   51 | 20/05/15 | 12:25:16 | 1.712E+01 |
 |                           |   52 | 20/05/15 | 12:25:16 | 1.712E+01 |
 |                           |   53 | 20/05/15 | 12:25:16 | 1.712E+01 |
 |                           |   54 | 20/05/15 | 12:25:16 | 1.712E+01 |
 |                           |   55 | 20/05/15 | 12:25:16 | 1.712E+01 |
 |                           |   56 | 20/05/15 | 12:25:16 | 1.712E+01 |
 +---------------------------+------+----------+----------+-----------+
 | RD000D3A207F55            |   57 | 20/05/15 | 12:25:16 | 1.906E+01 |
 |                           |   58 | 20/05/15 | 12:25:16 | 1.906E+01 |
 |                           |   59 | 20/05/15 | 12:25:16 | 1.906E+01 |
 |                           |   60 | 20/05/15 | 12:25:16 | 1.906E+01 |
 |                           |   61 | 20/05/15 | 12:25:16 | 1.906E+01 |
 |                           |   62 | 20/05/15 | 12:25:16 | 1.906E+01 |
 |                           |   63 | 20/05/15 | 12:25:16 | 1.906E+01 |
 |                           |   64 | 20/05/15 | 12:25:16 | 1.906E+01 |
 +---------------------------+------+----------+----------+-----------+

 Total wall clock time: 1.597E+01 seconds
             or: (          0:         0:         0:    15.965 )
                 (       Days:     Hours:   Minutes:   Seconds )



 --> Final synchronization point reached by all partitions.
End of solution stage.

 +--------------------------------------------------------------------+
 | The results from this run of the ANSYS CFX Solver have been        |
 | written to                                                         |
 | \\10.10.13.13\C\Resources\directory\6856915b948b44a6bdefbb45beb7e- |
 | 8dd.HSR.AzureEE.HpcWorkerRole.jobdata\job-5\pipe01_001.res         |
 +--------------------------------------------------------------------+


This run of the ANSYS CFX Solver has finished.
