 This run of the CFX Release 16.0 Solver started at 16:25:14 on 21 May
 2015 by user _mirosla on SIET0003 (intel_xeon64.sse2_winnt) using the
 command:
 
  "C:\Program Files\ANSYS Inc\v160\CFX\bin\perllib\cfx5solve.pl"
    -stdout-comms -batch -ccl -
 
 Release 16.0
 
  Point Releases and Patches installed:
  ANSYS, Inc. Products Release 16.0
  ANSYS Mechanical Products Release 16.0
  ANSYS Customization Files for User Programmable Features Release 16.0
  ANSYS Autodyn Release 16.0
  ANSYS AIM Release 16.0
  ANSYS CFX (includes ANSYS CFD-Post) Release 16.0
  ANSYS Fluent (includes ANSYS CFD-Post) Release 16.0
  ANSYS TurboGrid Release 16.0
  ANSYS Polyflow (includes ANSYS CFD-Post) Release 16.0
  ANSYS CFD-Post only Release 16.0
  ANSYS ICEM CFD Release 16.0
  ANSYS Composite PrepPost Release 16.0
  ANSYS, Inc. License Manager Release 16.0
 
 Setting up CFX Solver run ...
 

 +--------------------------------------------------------------------+
 |                                                                    |
 |         Solver Startup: Submit to Windows CCS or HPC Queue         |
 |                                                                    |
 +--------------------------------------------------------------------+


 +--------------------------------------------------------------------+
 | Starting the ANSYS CFX Solver on siet0003 using the command        |
 |                                                                    |
 |   "C:\Program Files\ANSYS Inc\v160\CFX\bin\cfx5perl" "C:\Program - |
 | Files\ANSYS Inc\v160\CFX\etc\cfxccs.pl" -part 12 -indirect-startu- |
 | p-path \\shpc0001\home\lmirosla\AppData\pipe01_001                 |
 |                                                                    |
 | Please wait.                                                       |
 +--------------------------------------------------------------------+

Processing user options from C:\Users\_mirosla\.cfx\cfxccs_options.txt:
PATHMAP=c:\Program Files\Ansys Inc;\\shpc0001\Ansys Inc
PATHMAP=Z:\home;\\shpc0001\home
CLUSTERHOST=shpc0001

MAPPING PATHS
Mapping path for CFX installation directory
 Original C:\PROGRAM FILES\ANSYS INC\V160\CFX
 Mapped: \\SHPC0001\ANSYS INC\V160\CFX
Connected to cluster SHPC0001
Command submitted to cluster =
  "\\SHPC0001\ANSYS INC\V160\CFX\bin\cfx5solve" -start-method MSMPI -part 12 -indirect-startup-path "\\SHPC0001\HOME\LMIROSLA\APPDATA\pipe01_001"
 This run of the CFX Release 16.0 Solver started at 16:25:17 on 21 May
 2015 by user _mirosla on NODE17 (intel_xeon64.sse2_winnt).
 
 Release 16.0
 
  Point Releases and Patches installed:
  ANSYS, Inc. Products Release 16.0
  ANSYS Mechanical Products Release 16.0
  ANSYS Customization Files for User Programmable Features Release 16.0
  ANSYS Autodyn Release 16.0
  ANSYS AIM Release 16.0
  ANSYS CFX (includes ANSYS CFD-Post) Release 16.0
  ANSYS Fluent (includes ANSYS CFD-Post) Release 16.0
  ANSYS TurboGrid Release 16.0
  ANSYS Polyflow (includes ANSYS CFD-Post) Release 16.0
  ANSYS CFD-Post only Release 16.0
  ANSYS ICEM CFD Release 16.0
  ANSYS Composite PrepPost Release 16.0
  ANSYS, Inc. License Manager Release 16.0
 
 Setting up CFX Solver run ...
 

 +--------------------------------------------------------------------+
 |                                                                    |
 |                    CFX Command Language for Run                    |
 |                                                                    |
 +--------------------------------------------------------------------+

 LIBRARY:
   CEL:
     EXPRESSIONS:
       DeltaT = probe(T)@MP3-273.15[K]
     END
   END
   MATERIAL: PE100RC
     Material Group = CHT Solids
     Option = Pure Substance
     Thermodynamic State = Solid
     PROPERTIES:
       Option = General Material
       EQUATION OF STATE:
         Density = 960 [kg m^-3]
         Molar Mass = 1.0 [kg kmol^-1]
         Option = Value
       END
       SPECIFIC HEAT CAPACITY:
         Option = Value
         Specific Heat Capacity = 1900 [J kg^-1 K^-1]
       END
       THERMAL CONDUCTIVITY:
         Option = Value
         Thermal Conductivity = 0.38 [W m^-1 K^-1]
       END
     END
   END
   MATERIAL: Water Glycol Mixture
     Material Description = Water (liquid)
     Material Group = Water Data,Constant Property Liquids
     Option = Pure Substance
     Thermodynamic State = Liquid
     PROPERTIES:
       Option = General Material
       EQUATION OF STATE:
         Density = 1042 [kg m^-3]
         Molar Mass = 18.02 [kg kmol^-1]
         Option = Value
       END
       SPECIFIC HEAT CAPACITY:
         Option = Value
         Specific Heat Capacity = 3481 [J kg^-1 K^-1]
         Specific Heat Type = Constant Pressure
       END
       REFERENCE STATE:
         Option = Specified Point
         Reference Pressure = 1 [atm]
         Reference Specific Enthalpy = 0.0 [J/kg]
         Reference Specific Entropy = 0.0 [J/kg/K]
         Reference Temperature = 0 [C]
       END
       DYNAMIC VISCOSITY:
         Dynamic Viscosity = 8.899E-4 [kg m^-1 s^-1]
         Option = Value
       END
       THERMAL CONDUCTIVITY:
         Option = Value
         Thermal Conductivity = 0.6069 [W m^-1 K^-1]
       END
       ABSORPTION COEFFICIENT:
         Absorption Coefficient = 1.0 [m^-1]
         Option = Value
       END
       SCATTERING COEFFICIENT:
         Option = Value
         Scattering Coefficient = 0.0 [m^-1]
       END
       REFRACTIVE INDEX:
         Option = Value
         Refractive Index = 1.0 [m m^-1]
       END
       THERMAL EXPANSIVITY:
         Option = Value
         Thermal Expansivity = 2.57E-04 [K^-1]
       END
     END
   END
 END
 FLOW: Flow Analysis 1
   SOLUTION UNITS:
     Angle Units = [rad]
     Length Units = [m]
     Mass Units = [kg]
     Solid Angle Units = [sr]
     Temperature Units = [K]
     Time Units = [s]
   END
   ANALYSIS TYPE:
     Option = Steady State
     EXTERNAL SOLVER COUPLING:
       Option = None
     END
   END
   DOMAIN: FluidDom
     Coord Frame = Coord 0
     Domain Type = Fluid
     Location = B446
     BOUNDARY: Default Fluid Solid Interface Side 1
       Boundary Type = INTERFACE
       Location = F449.446,F450.446,F452.446,F453.446,F454.446
       BOUNDARY CONDITIONS:
         HEAT TRANSFER:
           Option = Conservative Interface Flux
         END
         MASS AND MOMENTUM:
           Option = No Slip Wall
         END
         WALL ROUGHNESS:
           Option = Smooth Wall
         END
       END
     END
     BOUNDARY: Domain Interface 1 Side 1 1
       Boundary Type = INTERFACE
       Location = FluidSym01
       BOUNDARY CONDITIONS:
         HEAT TRANSFER:
           Option = Conservative Interface Flux
         END
         MASS AND MOMENTUM:
           Option = Conservative Interface Flux
         END
         TURBULENCE:
           Option = Conservative Interface Flux
         END
       END
     END
     BOUNDARY: Domain Interface 2 Side 1
       Boundary Type = INTERFACE
       Location = FluidSym02
       BOUNDARY CONDITIONS:
         HEAT TRANSFER:
           Option = Conservative Interface Flux
         END
         MASS AND MOMENTUM:
           Option = Conservative Interface Flux
         END
         TURBULENCE:
           Option = Conservative Interface Flux
         END
       END
     END
     BOUNDARY: Inlet
       Boundary Type = INLET
       Location = F447.446
       BOUNDARY CONDITIONS:
         FLOW DIRECTION:
           Option = Normal to Boundary Condition
         END
         FLOW REGIME:
           Option = Subsonic
         END
         HEAT TRANSFER:
           Option = Static Temperature
           Static Temperature = 273.15 [K]
         END
         MASS AND MOMENTUM:
           Mass Flow Rate = 0.01185 [kg s^-1]
           Mass Flow Rate Area = As Specified
           Option = Mass Flow Rate
         END
         TURBULENCE:
           Option = Medium Intensity and Eddy Viscosity Ratio
         END
       END
     END
     BOUNDARY: Outlet
       Boundary Type = OUTLET
       Location = F451.446
       BOUNDARY CONDITIONS:
         FLOW REGIME:
           Option = Subsonic
         END
         MASS AND MOMENTUM:
           Mass Flow Rate = 0.01185 [kg s^-1]
           Mass Flow Rate Area = As Specified
           Option = Mass Flow Rate
         END
       END
     END
     DOMAIN MODELS:
       BUOYANCY MODEL:
         Option = Non Buoyant
       END
       DOMAIN MOTION:
         Option = Stationary
       END
       MESH DEFORMATION:
         Option = None
       END
       REFERENCE PRESSURE:
         Reference Pressure = 1 [atm]
       END
     END
     FLUID DEFINITION: Fluid 1
       Material = Water Glycol Mixture
       Option = Material Library
       MORPHOLOGY:
         Option = Continuous Fluid
       END
     END
     FLUID MODELS:
       COMBUSTION MODEL:
         Option = None
       END
       HEAT TRANSFER MODEL:
         Option = Thermal Energy
       END
       THERMAL RADIATION MODEL:
         Option = None
       END
       TURBULENCE MODEL:
         Option = k epsilon
       END
       TURBULENT WALL FUNCTIONS:
         Option = Scalable
       END
     END
     SOURCE POINT: Origin
       Cartesian Coordinates = 0.0[m],0.0[m],0.0[m]
       Option = Cartesian Coordinates
     END
   END
   DOMAIN: TubeDom
     Coord Frame = Coord 0
     Domain Type = Solid
     Location = B378,B662
     BOUNDARY: Default Fluid Solid Interface Side 2
       Boundary Type = INTERFACE
       Location = \
         F379.378,F380.378,F381.378,F382.378,F383.378,F666.662,F668.662,F670.6\
         62,F672.662,F674.662
       BOUNDARY CONDITIONS:
         HEAT TRANSFER:
           Option = Conservative Interface Flux
         END
       END
     END
     BOUNDARY: Domain Interface 1 Side 1
       Boundary Type = INTERFACE
       Location = TubeIntFace01
       BOUNDARY CONDITIONS:
         HEAT TRANSFER:
           Option = Conservative Interface Flux
         END
       END
     END
     BOUNDARY: Domain Interface 1 Side 2
       Boundary Type = INTERFACE
       Location = TubeIntFace02
       BOUNDARY CONDITIONS:
         HEAT TRANSFER:
           Option = Conservative Interface Flux
         END
       END
     END
     BOUNDARY: Domain Interface 2 Side 2
       Boundary Type = INTERFACE
       Location = TubeSymFace01
       BOUNDARY CONDITIONS:
         HEAT TRANSFER:
           Option = Conservative Interface Flux
         END
       END
     END
     BOUNDARY: SymmetrieSolid Side 1
       Boundary Type = INTERFACE
       Location = TubeSymFace02
       BOUNDARY CONDITIONS:
         HEAT TRANSFER:
           Option = Conservative Interface Flux
         END
       END
     END
     BOUNDARY: TubeDom Default
       Boundary Type = WALL
       Location = \
         F390.378,F391.378,F392.378,F393.378,F394.378,F676.662,F677.662,F678.6\
         62,F679.662,F680.662
       BOUNDARY CONDITIONS:
         HEAT TRANSFER:
           Option = Adiabatic
         END
       END
     END
     BOUNDARY: TubeOuterWallAdia
       Boundary Type = WALL
       Location = TubeOuterWall01
       BOUNDARY CONDITIONS:
         HEAT TRANSFER:
           Option = Adiabatic
         END
       END
     END
     BOUNDARY: TubeOuterWallHeatex
       Boundary Type = WALL
       Location = TubeOuterWall02
       BOUNDARY CONDITIONS:
         HEAT TRANSFER:
           Fixed Temperature = 283.15 [K]
           Option = Fixed Temperature
         END
       END
     END
     DOMAIN MODELS:
       DOMAIN MOTION:
         Option = Stationary
       END
       MESH DEFORMATION:
         Option = None
       END
     END
     SOLID DEFINITION: Solid 1
       Material = PE100RC
       Option = Material Library
       MORPHOLOGY:
         Option = Continuous Solid
       END
     END
     SOLID MODELS:
       HEAT TRANSFER MODEL:
         Option = Thermal Energy
       END
       THERMAL RADIATION MODEL:
         Option = None
       END
     END
   END
   DOMAIN INTERFACE: Default Fluid Solid Interface
     Boundary List1 = Default Fluid Solid Interface Side 1
     Boundary List2 = Default Fluid Solid Interface Side 2
     Interface Type = Fluid Solid
     INTERFACE MODELS:
       Option = General Connection
       FRAME CHANGE:
         Option = None
       END
       PITCH CHANGE:
         Option = None
       END
     END
     MESH CONNECTION:
       Option = Automatic
     END
   END
   DOMAIN INTERFACE: Domain Interface 1
     Boundary List1 = Domain Interface 1 Side 1
     Boundary List2 = Domain Interface 1 Side 2
     Interface Type = Solid Solid
     INTERFACE MODELS:
       Option = General Connection
       FRAME CHANGE:
         Option = None
       END
       PITCH CHANGE:
         Option = None
       END
     END
     MESH CONNECTION:
       Option = Automatic
     END
   END
   DOMAIN INTERFACE: SymmetrieFluid
     Boundary List1 = Domain Interface 1 Side 1 1
     Boundary List2 = Domain Interface 2 Side 1
     Interface Type = Fluid Fluid
     INTERFACE MODELS:
       Option = Rotational Periodicity
       AXIS DEFINITION:
         Option = Coordinate Axis
         Rotation Axis = Coord 0.1
       END
     END
     MESH CONNECTION:
       Option = GGI
       INTERSECTION CONTROL:
         Option = Direct
         Periodic Axial Radial Tolerance = 0.001
       END
     END
   END
   DOMAIN INTERFACE: SymmetrieSolid
     Boundary List1 = Domain Interface 2 Side 2
     Boundary List2 = SymmetrieSolid Side 1
     Interface Type = Solid Solid
     INTERFACE MODELS:
       Option = Rotational Periodicity
       AXIS DEFINITION:
         Option = Coordinate Axis
         Rotation Axis = Coord 0.1
       END
     END
     MESH CONNECTION:
       Option = Automatic
       INTERSECTION CONTROL:
         Option = Direct
         Periodic Axial Radial Tolerance = 0.0001
       END
     END
   END
   OUTPUT CONTROL:
     MONITOR OBJECTS:
       MONITOR BALANCES:
         Option = Full
       END
       MONITOR FORCES:
         Option = Full
       END
       MONITOR PARTICLES:
         Option = Full
       END
       MONITOR POINT: MP1
         Cartesian Coordinates = 2.5 [m], 0 [m], 0 [m]
         Coord Frame = Coord 0
         Option = Cartesian Coordinates
         Output Variables List = Courant Number,Pressure,Temperature,Velocity
         MONITOR LOCATION CONTROL:
           Interpolation Type = Nearest Vertex
         END
         POSITION UPDATE FREQUENCY:
           Option = Initial Mesh Only
         END
       END
       MONITOR POINT: MP2
         Cartesian Coordinates = 2.5 [m], 0.012 [m], 0 [m]
         Coord Frame = Coord 0
         Option = Cartesian Coordinates
         Output Variables List = Courant Number,Pressure,Temperature,Velocity
         MONITOR LOCATION CONTROL:
           Interpolation Type = Nearest Vertex
         END
         POSITION UPDATE FREQUENCY:
           Option = Initial Mesh Only
         END
       END
       MONITOR POINT: MP3
         Cartesian Coordinates = 2.5 [m], 0.024 [m], 0 [m]
         Coord Frame = Coord 0
         Option = Cartesian Coordinates
         Output Variables List = Courant Number,Pressure,Temperature,Velocity
         MONITOR LOCATION CONTROL:
           Interpolation Type = Nearest Vertex
         END
         POSITION UPDATE FREQUENCY:
           Option = Initial Mesh Only
         END
       END
       MONITOR POINT: MP3_1
         Coord Frame = Coord 0
         Expression Value = DeltaT
         Option = Expression
       END
       MONITOR RESIDUALS:
         Option = Full
       END
       MONITOR TOTALS:
         Option = Full
       END
     END
     RESULTS:
       File Compression Level = Default
       Option = Standard
     END
   END
   SOLVER CONTROL:
     Turbulence Numerics = First Order
     ADVECTION SCHEME:
       Option = High Resolution
     END
     CONVERGENCE CONTROL:
       Length Scale Option = Conservative
       Maximum Number of Iterations = 200
       Minimum Number of Iterations = 1
       Solid Timescale Control = Auto Timescale
       Timescale Control = Auto Timescale
       Timescale Factor = 1.0
     END
     CONVERGENCE CRITERIA:
       Residual Target = 0.000001
       Residual Type = RMS
     END
     DYNAMIC MODEL CONTROL:
       Global Dynamic Model Control = On
     END
   END
 END
 COMMAND FILE:
   Version = 16.0
   Results Version = 16.0
 END
 SIMULATION CONTROL:
   EXECUTION CONTROL:
     EXECUTABLE SELECTION:
       Double Precision = No
     END
     INTERPOLATOR STEP CONTROL:
       Runtime Priority = Standard
       MEMORY CONTROL:
         Memory Allocation Factor = 1.0
       END
     END
     PARALLEL HOST LIBRARY:
       HOST DEFINITION: node17
         Host Architecture String = winnt-amd64
         Installation Root = \\SHPC0001\ANSYS INC\V160\CFX
       END
     END
     PARTITIONER STEP CONTROL:
       Multidomain Option = Automatic
       Runtime Priority = Standard
       EXECUTABLE SELECTION:
         Use Large Problem Partitioner = Off
       END
       MEMORY CONTROL:
         Memory Allocation Factor = 1.0
       END
       PARTITION SMOOTHING:
         Maximum Partition Smoothing Sweeps = 100
         Option = Smooth
       END
       PARTITIONING TYPE:
         MeTiS Type = k-way
         Option = MeTiS
         Partition Size Rule = Automatic
         Partition Weight Factors = 0.08333, 0.08333, 0.08333, 0.08333, \
           0.08333, 0.08333, 0.08333, 0.08333, 0.08333, 0.08333, 0.08333, \
           0.08333
       END
     END
     RUN DEFINITION:
       Run Mode = Full
       Solver Input File = \\SHPC0001\HOME\LMIROSLA\APPDATA\PIPE01.DEF
       Solver Results File = \\SHPC0001\HOME\LMIROSLA\APPDATA\pipe01_001.res
     END
     SOLVER STEP CONTROL:
       Runtime Priority = Standard
       MEMORY CONTROL:
         Memory Allocation Factor = 1.0
       END
       PARALLEL ENVIRONMENT:
         Number of Processes = 12
         Start Method = MSMPI
         Parallel Host List = node17*12
       END
     END
   END
 END
 

 +--------------------------------------------------------------------+
 |                                                                    |
 |                            Partitioning                            |
 |                                                                    |
 +--------------------------------------------------------------------+




 +--------------------------------------------------------------------+
 |                                                                    |
 |                     ANSYS(R) CFX(R) Partitioner                    |
 |                                                                    |
 | Release 16.0                                                       |
 | Build 16.0 2014.11.14-23.10-133146                                 |
 | Fri Nov 14 23:52:10 GMTST 2014                                     |
 |                                                                    |
 |                        Executable Attributes                       |
 |                                                                    |
 |          single-64bit-int32-supfort-optimised-noprof-lcomp         |
 |                                                                    |
 | (C) 2014 ANSYS, Inc.                                               |
 |                                                                    |
 | All rights reserved. Unauthorized use, distribution or duplication |
 | is prohibited. This product is subject to U.S. laws governing      |
 | export and re-export. For full Legal Notice, see documentation.    |
 +--------------------------------------------------------------------+




 +--------------------------------------------------------------------+
 |                  Job Information at Start of Run                   |
 +--------------------------------------------------------------------+

 Run mode:       partitioning run

 Host computer:  NODE17 (PID:10084)

 Job started:    Thu May 21 16:25:20 2015


 +--------------------------------------------------------------------+
 |        Memory Allocated for Run  (Actual usage may be less)        |
 +--------------------------------------------------------------------+

           | Real       | Integer    | Character | Logical  | Double
 ----------+------------+------------+-----------+----------+----------
 Mwords    |      10.43 |      16.90 |      3.41 |     0.12 |     1.20
 Mbytes    |      39.80 |      64.45 |      3.25 |     0.46 |     9.16
 ----------+------------+------------+-----------+----------+----------


 +--------------------------------------------------------------------+
 |                  Host Memory Information (Mbytes)                  |
 +--------------------------------------------------------------------+
 |          Host           |     System     |   Allocated    |   %    |
 +-------------------------+----------------+----------------+--------+
 | NODE17                  |     49142.29   |       117.12   |   0.24 |
 +-------------------------+----------------+----------------+--------+

 +--------------------------------------------------------------------+
 | The MeTiS partitioning method allocates additional memory.         |
 | Total memory usage will therefore exceed the values shown above.   |
 +--------------------------------------------------------------------+

 +--------------------------------------------------------------------+
 |                          Mesh Statistics                           |
 +--------------------------------------------------------------------+

 Domain Name : FluidDom

     Total Number of Nodes                                =      191250

     Total Number of Elements                             =      164780
         Total Number of Prisms                           =         749
         Total Number of Hexahedrons                      =      164031

     Total Number of Faces                                =       52121

 Domain Name : TubeDom

     Total Number of Nodes                                =       64212

     Total Number of Elements                             =       30322
         Total Number of Hexahedrons                      =       30322

     Total Number of Faces                                =       64208
 
 Global Statistics :

     Global Number of Nodes                               =      255462

     Global Number of Elements                            =      195102
         Total Number of Prisms                           =         749
         Total Number of Hexahedrons                      =      194353

     Global Number of Faces                               =      116329

 Domain Interface Name : Default Fluid Solid Interface

     Discretization type                                  =         GGI
     Intersection type                                    =      Direct
     Non-overlap area fraction on side 1                  =    2.39E-01
     Non-overlap area fraction on side 2                  =    2.41E-01

 Domain Interface Name : Domain Interface 1

     Discretization type                                  =         GGI
     Intersection type                                    =      Direct
     Non-overlap area fraction on side 1                  =    7.27E-03
     Non-overlap area fraction on side 2                  =    1.66E-02

 Domain Interface Name : SymmetrieFluid

     Discretization type                                  =         GGI
     Intersection type                                    =      Direct
     Non-overlap area fraction on side 1                  =    0.00E+00
     Non-overlap area fraction on side 2                  =    0.00E+00

 Domain Interface Name : SymmetrieSolid

     Discretization type                                  =         1:1
     Intersection type                                    =      Direct

 +--------------------------------------------------------------------+
 |                     Vertex Based Partitioning                      |
 +--------------------------------------------------------------------+

 Partitioning of domain: FluidDom

 - Partitioning tool:       MeTiS multilevel k-way algorithm
 - Number of partitions:            12
 - Number of graph-nodes:       191250
 - Number of graph-edges:      1255338

 Partitioning of domain: TubeDom

 - Partitioning tool:       MeTiS multilevel k-way algorithm
 - Number of partitions:            12
 - Number of graph-nodes:        60714
 - Number of graph-edges:       304120

 +--------------------------------------------------------------------+
 |                 Iso-Partition Connection Statistics                |
 +--------------------------------------------------------------------+
 | Domains in Group          |        |           Vertices            |
 |                           | Smooth +---------+----------+----------+
 |                           | Sweeps |  Moves  |   <25%   |   <50%   |
 +---------------------------+--------+---------+----------+----------+
 | FluidDom                  |     3  |      16 |       0  |       0  |
 | TubeDom                   |     2  |       4 |       0  |       0  |
 +---------------------------+--------+---------+----------+----------+

 +--------------------------------------------------------------------+
 |                      Partitioning Information                      |
 +--------------------------------------------------------------------+

 Partitioning information for domain: FluidDom

        +------------------+------------------------+-----------------+
        |     Elements     |        Vertices        |     Faces       |
 +------+------------------+------------------------+-----------------+
 | Part |   Number     %   |   Number     %   %Ovlp |  Number     %   |
 +------+------------------+------------------------+-----------------+
 | Full |    164780        |    191250              |    52121        |
 +------+------------------+------------------------+-----------------+
 |    1 |     15125    8.3 |     19106    8.3  18.2 |     5730    8.2 |
 |    2 |     15504    8.5 |     19582    8.5  17.5 |     5964    8.6 |
 |    3 |     15122    8.3 |     19048    8.3  17.3 |     5727    8.2 |
 |    4 |     14995    8.2 |     18861    8.2  16.1 |     5820    8.4 |
 |    5 |     15647    8.6 |     19737    8.6  17.6 |     5958    8.6 |
 |    6 |     15199    8.3 |     19346    8.4  18.4 |     5984    8.6 |
 |    7 |     15328    8.4 |     19336    8.4  17.2 |     5873    8.5 |
 |    8 |     15005    8.2 |     18787    8.2  15.9 |     5602    8.1 |
 |    9 |     14957    8.2 |     18691    8.1  14.3 |     5759    8.3 |
 |   10 |     15336    8.4 |     19088    8.3  15.2 |     5598    8.1 |
 |   11 |     15341    8.4 |     19240    8.4  16.8 |     5617    8.1 |
 |   12 |     15094    8.3 |     19097    8.3  17.2 |     5841    8.4 |
 +------+------------------+------------------------+-----------------+
 | Min  |     14957    8.2 |     18691    8.1  14.3 |     5598    8.1 |
 |(part)|           (    9)|           (    9     9)|          (   10)|
 +------+------------------+------------------------+-----------------+
 | Max  |     15647    8.6 |     19737    8.6  18.4 |     5984    8.6 |
 |(part)|           (    5)|           (    5     6)|          (    6)|
 +------+------------------+------------------------+-----------------+
 | Ave  |     15221    8.3 |     19160    8.3  16.8 |     5789    8.3 |
 +------+------------------+------------------------+-----------------+
 | Sum  |    182653  100.0 |    229919  100.0       |    69473  100.0 |
 +------+------------------+------------------------+-----------------+

 Partitioning information for domain: TubeDom

        +------------------+------------------------+-----------------+
        |     Elements     |        Vertices        |     Faces       |
 +------+------------------+------------------------+-----------------+
 | Part |   Number     %   |   Number     %   %Ovlp |  Number     %   |
 +------+------------------+------------------------+-----------------+
 | Full |     30322        |     64212              |    64208        |
 +------+------------------+------------------------+-----------------+
 |    1 |      5184    8.4 |     11068    8.4  49.4 |     8461    8.5 |
 |    2 |      5060    8.2 |     10804    8.2  49.2 |     8264    8.3 |
 |    3 |      4953    8.0 |     10566    8.0  49.9 |     8053    8.1 |
 |    4 |      5080    8.2 |     10844    8.2  51.3 |     8202    8.2 |
 |    5 |      5184    8.4 |     11060    8.4  50.5 |     8399    8.4 |
 |    6 |      4852    7.8 |     10374    7.9  47.2 |     8037    8.1 |
 |    7 |      5395    8.7 |     11496    8.7  53.5 |     8555    8.6 |
 |    8 |      5330    8.6 |     11342    8.6  53.1 |     8460    8.5 |
 |    9 |      5377    8.7 |     11482    8.7  54.8 |     8493    8.5 |
 |   10 |      5414    8.8 |     11570    8.8  56.5 |     8460    8.5 |
 |   11 |      5191    8.4 |     11074    8.4  53.2 |     8267    8.3 |
 |   12 |      4844    7.8 |     10324    7.8  46.5 |     8032    8.1 |
 +------+------------------+------------------------+-----------------+
 | Min  |      4844    7.8 |     10324    7.8  46.5 |     8032    8.1 |
 |(part)|           (   12)|           (   12    12)|          (   12)|
 +------+------------------+------------------------+-----------------+
 | Max  |      5414    8.8 |     11570    8.8  56.5 |     8555    8.6 |
 |(part)|           (   10)|           (   10    10)|          (    7)|
 +------+------------------+------------------------+-----------------+
 | Ave  |      5155    8.3 |     11000    8.3  51.3 |     8307    8.3 |
 +------+------------------+------------------------+-----------------+
 | Sum  |     61864  100.0 |    132004  100.0       |    99683  100.0 |
 +------+------------------+------------------------+-----------------+

 +--------------------------------------------------------------------+
 |                 Partitioning CPU-Time Requirements                 |
 +--------------------------------------------------------------------+
  
 - Preparations                                       2.660E-01 seconds
 - Low-level mesh partitioning                        1.710E-01 seconds
 - Gather zone interface information                  2.040E-01 seconds
 - Global partitioning information                    3.000E-02 seconds
 - Element and face partitioning information          9.400E-02 seconds
 - Vertex partitioning information                    1.600E-02 seconds
 - Partitioning Smoothing                             2.660E-01 seconds
 - Partitioning information compression               0.000E+00 seconds
 - Summed CPU-time for mesh partitioning              1.172E+00 seconds

 +--------------------------------------------------------------------+
 |                   Job Information at End of Run                    |
 +--------------------------------------------------------------------+

 Host computer:  NODE17 (PID:10084)

 Job finished:   Thu May 21 16:25:26 2015

 Total wall clock time: 6.265E+00 seconds
             or: (          0:         0:         0:     6.265 )
                 (       Days:     Hours:   Minutes:   Seconds )


 +--------------------------------------------------------------------+
 |                                                                    |
 |                               Solver                               |
 |                                                                    |
 +--------------------------------------------------------------------+




 +--------------------------------------------------------------------+
 |                                                                    |
 |                       ANSYS(R) CFX(R) Solver                       |
 |                                                                    |
 | Release 16.0                                                       |
 | Build 16.0 2014.11.14-23.10-133146                                 |
 | Fri Nov 14 23:52:07 GMTST 2014                                     |
 |                                                                    |
 |                        Executable Attributes                       |
 |                                                                    |
 |          single-64bit-int32-supfort-optimised-noprof-lcomp         |
 |                                                                    |
 | (C) 2014 ANSYS, Inc.                                               |
 |                                                                    |
 | All rights reserved. Unauthorized use, distribution or duplication |
 | is prohibited. This product is subject to U.S. laws governing      |
 | export and re-export. For full Legal Notice, see documentation.    |
 +--------------------------------------------------------------------+




 +--------------------------------------------------------------------+
 |                  Job Information at Start of Run                   |
 +--------------------------------------------------------------------+

 Run mode:       parallel run (MS MPI)

 Job started:    Thu May 21 16:25:27 2015

 +--------------------------------------------------------------------+
 |                        License Information                         |
 +--------------------------------------------------------------------+
 
 License Cap:    ANSYS CFX Solver (Max 512K Nodes)
 License Cap:     Parallel
 License ID:     SIET0001.hsr.ch-SYSTEM-20964-171963


 +--------------------------------------------------------------------+
 |        Memory Allocated for Run  (Actual usage may be less)        |
 +--------------------------------------------------------------------+

 Allocated storage in:    Mwords
                          Mbytes

 Partition | Real       | Integer    | Character | Logical  | Double
 ----------+------------+------------+-----------+----------+----------
   Minimum |      24.12 |       5.78 |      3.86 |     0.12 |     1.21
  (    12) |      92.00 |      22.05 |      3.68 |     0.11 |     9.22
 ----------+------------+------------+-----------+----------+----------
   Maximum |      24.39 |       6.15 |      3.86 |     0.12 |     1.21
  (     5) |      93.05 |      23.44 |      3.68 |     0.11 |     9.22
 ----------+------------+------------+-----------+----------+----------
   Average |      24.25 |       6.00 |      3.86 |     0.12 |     1.21
           |      92.50 |      22.90 |      3.68 |     0.11 |     9.22
 ----------+------------+------------+-----------+----------+----------
     Total |     290.97 |      72.04 |     46.30 |     1.44 |    14.50
           |    1109.95 |     274.80 |     44.15 |     1.37 |   110.60
 ----------+------------+------------+-----------+----------+----------


 +--------------------------------------------------------------------+
 |                  Host Memory Information (Mbytes)                  |
 +--------------------------------------------------------------------+
 |           Host         | Npart |   System    |  Allocated  |   %   |
 +------------------------+-------+-------------+-------------+-------+
 | NODE17                 |   12  |    49142.29 |     1540.87 |  3.14 |
 +------------------------+-------+-------------+-------------+-------+


 +--------------------------------------------------------------------+
 |                     ****** Notice ******                           |
 | The Wall Heat Transfer Coefficient written to the results file for |
 | any turbulent phase with heat transfer is based on the turbulent   |
 | wall function coefficient. It is consistent with the Wall Heat Flux|
 | the wall temperature, and the Wall Adjacent Temperature            |
 | (near-wall temperature).  If you would like it to be based on a    |
 | user-specified bulk temperature instead, please set the expert     |
 | parameter "tbulk for htc = <value>".                               |
 +--------------------------------------------------------------------+

 +--------------------------------------------------------------------+
 |                     User Defined Source Points                     |
 +--------------------------------------------------------------------+

 Domain Name : FluidDom

 Source Point: Origin

   User specified location (x,y,z):   0.000E+00,  0.000E+00,  0.000E+00
   Assigned element center (x,y,z):   2.003E-03,  9.120E-04, -2.444E-04
   Distance to specified location :   2.214E-03

 +--------------------------------------------------------------------+
 |                          Mesh Statistics                           |
 +--------------------------------------------------------------------+
 | Domain Name          | Orthog. Angle | Exp. Factor  | Aspect Ratio |
 +----------------------+---------------+--------------+--------------+
 |                      | Minimum [deg] |   Maximum    |    Maximum   |
 +----------------------+---------------+--------------+--------------+
 | FluidDom             |       38.0 ok |        14 ok |        48 OK |
 | TubeDom              |       43.5 ok |         2 OK |         2 OK |
 | Global               |       38.0 ok |        14 ok |        48 OK |
 +----------------------+---------------+--------------+--------------+
 |                      |  %!  %ok  %OK | %!  %ok  %OK | %!  %ok  %OK |
 +----------------------+---------------+--------------+--------------+
 | FluidDom             |   0    4   96 |  0    2   98 |  0    0  100 |
 | TubeDom              |   0    5   95 |  0    0  100 |  0    0  100 |
 | Global               |   0    4   96 |  0    1   99 |  0    0  100 |
 +----------------------+---------------+--------------+--------------+

 Domain Name : FluidDom

     Total Number of Nodes                                =      191250

     Total Number of Elements                             =      164780
         Total Number of Prisms                           =         749
         Total Number of Hexahedrons                      =      164031

     Total Number of Faces                                =       52121

 Domain Name : TubeDom

     Total Number of Nodes                                =       64212

     Total Number of Elements                             =       30322
         Total Number of Hexahedrons                      =       30322

     Total Number of Faces                                =       64208
 
 Global Statistics :

     Global Number of Nodes                               =      255462

     Global Number of Elements                            =      195102
         Total Number of Prisms                           =         749
         Total Number of Hexahedrons                      =      194353

     Global Number of Faces                               =      116329

 Domain Interface Name : Default Fluid Solid Interface

     Discretization type                                  =         GGI
     Intersection type                                    = Partitioner
     Non-overlap area fraction on side 1                  =    2.39E-01
     Non-overlap area fraction on side 2                  =    2.41E-01

 Domain Interface Name : Domain Interface 1

     Discretization type                                  =         GGI
     Intersection type                                    = Partitioner
     Non-overlap area fraction on side 1                  =    7.27E-03
     Non-overlap area fraction on side 2                  =    1.66E-02

 Domain Interface Name : SymmetrieFluid

     Discretization type                                  =         GGI
     Intersection type                                    = Partitioner
     Non-overlap area fraction on side 1                  =    0.00E+00
     Non-overlap area fraction on side 2                  =    0.00E+00

 Domain Interface Name : SymmetrieSolid

     Discretization type                                  =         1:1
     Intersection type                                    =      Direct

 +--------------------------------------------------------------------+
 |                  User Defined Monitor Information                  |
 +--------------------------------------------------------------------+

 Monitor Point: MP3_1

 Monitor Point: MP3

   Domain: FluidDom
   User specified location (x,y,z) :  2.500E+00,  2.400E-02,  0.000E+00
   Assigned vertex location (x,y,z):  2.499E+00,  2.346E-02,  4.617E-18
   Distance to specified location  :  8.586E-04
 
   Valid variables from output variable list:
                        Courant Number
                        Pressure
                        Temperature
                        Velocity

 Monitor Point: MP2

   Domain: FluidDom
   User specified location (x,y,z) :  2.500E+00,  1.200E-02,  0.000E+00
   Assigned vertex location (x,y,z):  2.499E+00,  1.173E-02,  6.053E-18
   Distance to specified location  :  7.201E-04
 
   Valid variables from output variable list:
                        Courant Number
                        Pressure
                        Temperature
                        Velocity

 Monitor Point: MP1

   Domain: FluidDom
   User specified location (x,y,z) :  2.500E+00,  0.000E+00,  0.000E+00
   Assigned vertex location (x,y,z):  2.499E+00,  4.048E-18, -2.603E-18
   Distance to specified location  :  6.676E-04
 
   Valid variables from output variable list:
                        Courant Number
                        Pressure
                        Temperature
                        Velocity

 +--------------------------------------------------------------------+
 |                   Reference Pressure Information                   |
 +--------------------------------------------------------------------+

 Domain Group: FluidDom
  
   Pressure has not been set at any boundary conditions.
   The pressure will be set to  0.00000E+00 at the following location:
   Domain      : FluidDom
   Node        :        1 (equation         1)
   Coordinates : ( 3.00000E+00, 7.11344E-03,-2.04761E-03).

 +--------------------------------------------------------------------+
 |                     Average Scale Information                      |
 +--------------------------------------------------------------------+

 Domain Name : FluidDom
     Global Length                                         = 9.0800E-02
     Minimum Extent                                        = 1.4662E-02
     Maximum Extent                                        = 3.0000E+00
     Density                                               = 1.0420E+03
     Dynamic Viscosity                                     = 8.8990E-04
     Velocity                                              = 4.5574E-02
     Advection Time                                        = 1.9924E+00
     Reynolds Number                                       = 4.8454E+03
     Thermal Conductivity                                  = 6.0690E-01
     Specific Heat Capacity at Constant Pressure           = 3.4810E+03
     Prandtl Number                                        = 5.1042E+00

 Domain Name : TubeDom
     Global Length                                         = 4.6242E-02
     Minimum Extent                                        = 8.8225E-03
     Maximum Extent                                        = 3.0000E+00
     Density                                               = 9.6000E+02
     Thermal Conductivity                                  = 3.8000E-01
     Specific Heat Capacity at Constant Pressure           = 1.9000E+03
     Thermal Diffusivity                                   = 2.0833E-07
     Average Diffusion Timescale                           = 1.0264E+04
     Minimum Diffusion Timescale                           = 3.7362E+02
     Maximum Diffusion Timescale                           = 4.3200E+07

 +--------------------------------------------------------------------+
 |                Checking for Isolated Fluid Regions                 |
 +--------------------------------------------------------------------+
 
 No isolated fluid regions were found.

 +--------------------------------------------------------------------+
 |              The Equations Solved in This Calculation              |
 +--------------------------------------------------------------------+
 
 Equations are given two labels: the individual name and a combined 
 name used for combining residuals together.  Residuals for multidomain 
 problems are combined provided the domains are connected together and 
 have the same domain type (solid or fluid/porous).  If there are 
 multiple groups of the same domain type, then the group residual is 
 identified by the name of the first domain in the connected group. 
 
 The individual and combined equation names are given below.

 Subsystem : Momentum and Mass

   U-Mom-FluidDom                            --> U-Mom
   V-Mom-FluidDom                            --> V-Mom
   W-Mom-FluidDom                            --> W-Mom
   P-Mass-FluidDom                           --> P-Mass

 Subsystem : Heat Transfer

   H-Energy-FluidDom                         --> H-Energy
   T-Energy-TubeDom                          --> T-Energy

 Subsystem : TurbKE and Diss.K

   K-TurbKE-FluidDom                         --> K-TurbKE
   E-Diss.K-FluidDom                         --> E-Diss.K
                   
 CFD Solver started: Thu May 21 16:25:32 2015


 +--------------------------------------------------------------------+
 |                       Convergence History                          |
 +--------------------------------------------------------------------+

 ======================================================================
 |                        Timescale Information                       |
 ----------------------------------------------------------------------
 |       Equation       |         Type          |      Timescale      |
 +----------------------+-----------------------+---------------------+
 | U-Mom-FluidDom       | Auto Timescale        |     5.97710E-01     |
 | V-Mom-FluidDom       | Auto Timescale        |     5.97710E-01     |
 | W-Mom-FluidDom       | Auto Timescale        |     5.97710E-01     |
 +----------------------+-----------------------+---------------------+
 | H-Energy-FluidDom    | Auto Timescale        |     5.97710E-01     |
 | T-Energy-TubeDom     | Auto Timescale        |     1.02641E+04     |
 +----------------------+-----------------------+---------------------+
 | K-TurbKE-FluidDom    | Auto Timescale        |     5.97710E-01     |
 | E-Diss.K-FluidDom    | Auto Timescale        |     5.97710E-01     |
 +----------------------+-----------------------+---------------------+

 ======================================================================
 OUTER LOOP ITERATION =    1                    CPU SECONDS = 6.381E+01
 ----------------------------------------------------------------------
 |       Equation       | Rate | RMS Res | Max Res |  Linear Solution |
 +----------------------+------+---------+---------+------------------+
 | U-Mom                | 0.00 | 4.5E-04 | 2.1E-03 |       2.1E-03  OK|
 | V-Mom                | 0.00 | 8.5E-10 | 7.8E-09 |       2.3E+03  F |
 | W-Mom                | 0.00 | 8.1E-10 | 6.1E-09 |       1.4E+03  F |
 | P-Mass               | 0.00 | 4.6E-09 | 1.6E-07 | 39.3  1.1E+02  F |
 +----------------------+------+---------+---------+------------------+
 | H-Energy             | 0.00 | 9.0E-03 | 5.4E-02 |       5.0E-02  OK|
 | T-Energy             | 0.00 | 7.7E-02 | 1.9E-01 | 19.4  5.0E-02  OK|
 +----------------------+------+---------+---------+------------------+
 | K-TurbKE             | 0.00 | 1.6E-03 | 3.2E-03 | 10.0  7.5E-02  OK|
 | E-Diss.K             | 0.00 | 1.5E-01 | 5.7E-01 | 10.4  1.7E-03  OK|
 +----------------------+------+---------+---------+------------------+

 ======================================================================
 OUTER LOOP ITERATION =    2                    CPU SECONDS = 9.906E+01
 ----------------------------------------------------------------------
 |       Equation       | Rate | RMS Res | Max Res |  Linear Solution |
 +----------------------+------+---------+---------+------------------+
 | U-Mom                | 0.74 | 3.3E-04 | 1.2E-03 |       3.2E-02  OK|
 | V-Mom                |99.99 | 1.0E-05 | 5.0E-04 |       6.9E-02  OK|
 | W-Mom                |99.99 | 3.6E-06 | 2.8E-04 |       1.3E-01  ok|
 | P-Mass               |99.99 | 1.8E-05 | 4.2E-03 | 18.0  7.5E-02  OK|
 +----------------------+------+---------+---------+------------------+
 | H-Energy             | 0.32 | 2.9E-03 | 3.1E-02 |       3.6E-02  OK|
 | T-Energy             | 0.01 | 6.2E-04 | 1.0E-02 | 14.8  3.6E-02  OK|
 +----------------------+------+---------+---------+------------------+
 | K-TurbKE             | 0.86 | 1.4E-03 | 2.9E-03 |  5.5  5.1E-02  OK|
 | E-Diss.K             | 0.02 | 2.9E-03 | 1.7E-02 | 10.4  1.6E-02  OK|
 +----------------------+------+---------+---------+------------------+

 ======================================================================
 OUTER LOOP ITERATION =    3                    CPU SECONDS = 1.296E+02
 ----------------------------------------------------------------------
 |       Equation       | Rate | RMS Res | Max Res |  Linear Solution |
 +----------------------+------+---------+---------+------------------+
 | U-Mom                | 0.80 | 2.7E-04 | 1.1E-03 |       2.1E-02  OK|
 | V-Mom                | 0.83 | 8.5E-06 | 4.2E-04 |       9.6E-02  OK|
 | W-Mom                | 0.84 | 3.0E-06 | 2.4E-04 |       1.8E-01  ok|
 | P-Mass               | 0.64 | 1.2E-05 | 2.1E-03 | 22.3  7.1E-02  OK|
 +----------------------+------+---------+---------+------------------+
 | H-Energy             | 0.44 | 1.3E-03 | 8.4E-03 |       9.2E-02  OK|
 | T-Energy             | 0.15 | 9.6E-05 | 2.1E-03 | 10.3  9.2E-02  OK|
 +----------------------+------+---------+---------+------------------+
 | K-TurbKE             | 0.85 | 1.2E-03 | 2.5E-03 | 10.0  4.3E-02  OK|
 | E-Diss.K             | 3.60 | 1.0E-02 | 5.6E-02 | 10.4  4.0E-03  OK|
 +----------------------+------+---------+---------+------------------+

 ======================================================================
 OUTER LOOP ITERATION =    4                    CPU SECONDS = 1.604E+02
 ----------------------------------------------------------------------
 |       Equation       | Rate | RMS Res | Max Res |  Linear Solution |
 +----------------------+------+---------+---------+------------------+
 | U-Mom                | 0.89 | 2.4E-04 | 1.4E-03 |       4.0E-02  OK|
 | V-Mom                | 1.01 | 8.6E-06 | 4.9E-04 |       7.0E-02  OK|
 | W-Mom                | 0.92 | 2.8E-06 | 1.8E-04 |       1.6E-01  ok|
 | P-Mass               | 0.91 | 1.1E-05 | 1.3E-03 | 18.0  7.8E-02  OK|
 +----------------------+------+---------+---------+------------------+
 | H-Energy             | 0.77 | 9.8E-04 | 6.6E-03 |       8.2E-02  OK|
 | T-Energy             | 3.43 | 3.3E-04 | 1.4E-03 | 10.2  8.2E-02  OK|
 +----------------------+------+---------+---------+------------------+
 | K-TurbKE             | 0.96 | 1.1E-03 | 2.8E-03 | 10.0  5.8E-02  OK|
 | E-Diss.K             | 2.16 | 2.2E-02 | 1.1E-01 | 10.4  2.4E-03  OK|
 +----------------------+------+---------+---------+------------------+

 ======================================================================
 OUTER LOOP ITERATION =    5                    CPU SECONDS = 1.906E+02
 ----------------------------------------------------------------------
 |       Equation       | Rate | RMS Res | Max Res |  Linear Solution |
 +----------------------+------+---------+---------+------------------+
 | U-Mom                | 0.93 | 2.2E-04 | 1.5E-03 |       3.8E-02  OK|
 | V-Mom                | 1.04 | 9.0E-06 | 5.4E-04 |       9.5E-02  OK|
 | W-Mom                | 1.01 | 2.8E-06 | 2.0E-04 |       2.0E-01  ok|
 | P-Mass               | 0.98 | 1.0E-05 | 9.2E-04 | 18.0  7.0E-02  OK|
 +----------------------+------+---------+---------+------------------+
 | H-Energy             | 0.83 | 8.1E-04 | 5.0E-03 |       7.0E-02  OK|
 | T-Energy             | 1.83 | 6.0E-04 | 2.4E-03 | 10.3  7.0E-02  OK|
 +----------------------+------+---------+---------+------------------+
 | K-TurbKE             | 1.10 | 1.2E-03 | 4.1E-03 | 10.0  5.9E-02  OK|
 | E-Diss.K             | 1.33 | 3.0E-02 | 1.4E-01 | 10.4  2.2E-03  OK|
 +----------------------+------+---------+---------+------------------+

 ======================================================================
 |                        Timescale Information                       |
 ----------------------------------------------------------------------
 |       Equation       |         Type          |      Timescale      |
 +----------------------+-----------------------+---------------------+
 | U-Mom-FluidDom       | Auto Timescale        |     5.97710E-01     |
 | V-Mom-FluidDom       | Auto Timescale        |     5.97710E-01     |
 | W-Mom-FluidDom       | Auto Timescale        |     5.97710E-01     |
 +----------------------+-----------------------+---------------------+
 | H-Energy-FluidDom    | Auto Timescale        |     5.97710E-01     |
 | T-Energy-TubeDom     | Auto Timescale        |     1.02641E+04     |
 +----------------------+-----------------------+---------------------+
 | K-TurbKE-FluidDom    | Auto Timescale        |     5.97710E-01     |
 | E-Diss.K-FluidDom    | Auto Timescale        |     5.97710E-01     |
 +----------------------+-----------------------+---------------------+

 ======================================================================
 OUTER LOOP ITERATION =    6                    CPU SECONDS = 2.206E+02
 ----------------------------------------------------------------------
 |       Equation       | Rate | RMS Res | Max Res |  Linear Solution |
 +----------------------+------+---------+---------+------------------+
 | U-Mom                | 0.95 | 2.1E-04 | 1.6E-03 |       3.6E-02  OK|
 | V-Mom                | 1.03 | 9.3E-06 | 5.8E-04 |       9.4E-02  OK|
 | W-Mom                | 1.01 | 2.8E-06 | 2.1E-04 |       2.0E-01  ok|
 | P-Mass               | 1.01 | 1.0E-05 | 7.8E-04 | 18.0  6.0E-02  OK|
 +----------------------+------+---------+---------+------------------+
 | H-Energy             | 0.87 | 7.0E-04 | 4.6E-03 |       6.2E-02  OK|
 | T-Energy             | 1.33 | 8.0E-04 | 3.2E-03 | 10.2  6.2E-02  OK|
 +----------------------+------+---------+---------+------------------+
 | K-TurbKE             | 1.12 | 1.4E-03 | 4.9E-03 | 10.1  5.3E-02  OK|
 | E-Diss.K             | 1.14 | 3.4E-02 | 1.6E-01 | 10.4  2.1E-03  OK|
 +----------------------+------+---------+---------+------------------+

 ======================================================================
 OUTER LOOP ITERATION =    7                    CPU SECONDS = 2.506E+02
 ----------------------------------------------------------------------
 |       Equation       | Rate | RMS Res | Max Res |  Linear Solution |
 +----------------------+------+---------+---------+------------------+
 | U-Mom                | 0.96 | 2.0E-04 | 1.6E-03 |       6.7E-02  OK|
 | V-Mom                | 1.01 | 9.4E-06 | 5.9E-04 |       1.0E-01  ok|
 | W-Mom                | 0.99 | 2.8E-06 | 2.1E-04 |       2.3E-01  ok|
 | P-Mass               | 1.01 | 1.1E-05 | 7.2E-04 | 13.8  9.5E-02  OK|
 +----------------------+------+---------+---------+------------------+
 | H-Energy             | 0.90 | 6.3E-04 | 4.3E-03 |       5.6E-02  OK|
 | T-Energy             | 1.16 | 9.3E-04 | 3.5E-03 | 10.2  5.6E-02  OK|
 +----------------------+------+---------+---------+------------------+
 | K-TurbKE             | 1.08 | 1.5E-03 | 5.3E-03 | 10.1  4.8E-02  OK|
 | E-Diss.K             | 1.04 | 3.5E-02 | 1.7E-01 | 10.4  2.1E-03  OK|
 +----------------------+------+---------+---------+------------------+

 ======================================================================
 OUTER LOOP ITERATION =    8                    CPU SECONDS = 2.800E+02
 ----------------------------------------------------------------------
 |       Equation       | Rate | RMS Res | Max Res |  Linear Solution |
 +----------------------+------+---------+---------+------------------+
 | U-Mom                | 0.96 | 1.9E-04 | 1.7E-03 |       6.6E-02  OK|
 | V-Mom                | 0.99 | 9.3E-06 | 5.9E-04 |       6.4E-02  OK|
 | W-Mom                | 0.98 | 2.7E-06 | 2.1E-04 |       1.7E-01  ok|
 | P-Mass               | 1.00 | 1.1E-05 | 6.6E-04 | 13.8  8.2E-02  OK|
 +----------------------+------+---------+---------+------------------+
 | H-Energy             | 0.92 | 5.8E-04 | 4.0E-03 |       5.2E-02  OK|
 | T-Energy             | 1.05 | 9.7E-04 | 3.7E-03 | 10.2  5.2E-02  OK|
 +----------------------+------+---------+---------+------------------+
 | K-TurbKE             | 1.04 | 1.6E-03 | 5.5E-03 | 10.1  4.5E-02  OK|
 | E-Diss.K             | 1.00 | 3.5E-02 | 1.6E-01 | 10.4  2.1E-03  OK|
 +----------------------+------+---------+---------+------------------+

 ======================================================================
 OUTER LOOP ITERATION =    9                    CPU SECONDS = 3.093E+02
 ----------------------------------------------------------------------
 |       Equation       | Rate | RMS Res | Max Res |  Linear Solution |
 +----------------------+------+---------+---------+------------------+
 | U-Mom                | 0.97 | 1.9E-04 | 1.7E-03 |       6.5E-02  OK|
 | V-Mom                | 0.99 | 9.2E-06 | 5.9E-04 |       6.9E-02  OK|
 | W-Mom                | 0.97 | 2.6E-06 | 1.9E-04 |       1.7E-01  ok|
 | P-Mass               | 1.01 | 1.1E-05 | 6.2E-04 | 13.8  7.6E-02  OK|
 +----------------------+------+---------+---------+------------------+
 | H-Energy             | 0.93 | 5.4E-04 | 3.7E-03 |       4.8E-02  OK|
 | T-Energy             | 1.01 | 9.9E-04 | 3.8E-03 | 10.2  4.8E-02  OK|
 +----------------------+------+---------+---------+------------------+
 | K-TurbKE             | 1.02 | 1.6E-03 | 5.6E-03 | 10.1  4.2E-02  OK|
 | E-Diss.K             | 0.97 | 3.4E-02 | 1.6E-01 | 10.4  2.0E-03  OK|
 +----------------------+------+---------+---------+------------------+

 ======================================================================
 OUTER LOOP ITERATION =   10                    CPU SECONDS = 3.385E+02
 ----------------------------------------------------------------------
 |       Equation       | Rate | RMS Res | Max Res |  Linear Solution |
 +----------------------+------+---------+---------+------------------+
 | U-Mom                | 0.98 | 1.9E-04 | 1.7E-03 |       6.3E-02  OK|
 | V-Mom                | 0.98 | 9.0E-06 | 5.8E-04 |       6.5E-02  OK|
 | W-Mom                | 0.97 | 2.6E-06 | 1.8E-04 |       1.7E-01  ok|
 | P-Mass               | 1.00 | 1.1E-05 | 5.8E-04 | 13.8  7.0E-02  OK|
 +----------------------+------+---------+---------+------------------+
 | H-Energy             | 0.94 | 5.1E-04 | 3.4E-03 |       4.5E-02  OK|
 | T-Energy             | 0.98 | 9.7E-04 | 3.8E-03 | 10.2  4.5E-02  OK|
 +----------------------+------+---------+---------+------------------+
 | K-TurbKE             | 1.00 | 1.6E-03 | 5.6E-03 | 10.1  4.0E-02  OK|
 | E-Diss.K             | 0.96 | 3.3E-02 | 1.5E-01 | 10.4  2.0E-03  OK|
 +----------------------+------+---------+---------+------------------+

 ======================================================================
 |                        Timescale Information                       |
 ----------------------------------------------------------------------
 |       Equation       |         Type          |      Timescale      |
 +----------------------+-----------------------+---------------------+
 | U-Mom-FluidDom       | Auto Timescale        |     5.97710E-01     |
 | V-Mom-FluidDom       | Auto Timescale        |     5.97710E-01     |
 | W-Mom-FluidDom       | Auto Timescale        |     5.97710E-01     |
 +----------------------+-----------------------+---------------------+
 | H-Energy-FluidDom    | Auto Timescale        |     5.97710E-01     |
 | T-Energy-TubeDom     | Auto Timescale        |     1.02641E+04     |
 +----------------------+-----------------------+---------------------+
 | K-TurbKE-FluidDom    | Auto Timescale        |     5.97710E-01     |
 | E-Diss.K-FluidDom    | Auto Timescale        |     5.97710E-01     |
 +----------------------+-----------------------+---------------------+

 ======================================================================
 OUTER LOOP ITERATION =   11                    CPU SECONDS = 3.678E+02
 ----------------------------------------------------------------------
 |       Equation       | Rate | RMS Res | Max Res |  Linear Solution |
 +----------------------+------+---------+---------+------------------+
 | U-Mom                | 0.98 | 1.8E-04 | 1.7E-03 |       6.1E-02  OK|
 | V-Mom                | 0.97 | 8.7E-06 | 5.7E-04 |       6.5E-02  OK|
 | W-Mom                | 0.97 | 2.5E-06 | 1.8E-04 |       1.7E-01  ok|
 | P-Mass               | 1.00 | 1.1E-05 | 5.5E-04 | 13.8  6.4E-02  OK|
 +----------------------+------+---------+---------+------------------+
 | H-Energy             | 0.95 | 4.8E-04 | 3.2E-03 |       4.3E-02  OK|
 | T-Energy             | 0.96 | 9.3E-04 | 3.7E-03 | 10.2  4.3E-02  OK|
 +----------------------+------+---------+---------+------------------+
 | K-TurbKE             | 0.99 | 1.6E-03 | 5.4E-03 | 10.1  3.8E-02  OK|
 | E-Diss.K             | 0.94 | 3.1E-02 | 1.4E-01 | 10.4  2.0E-03  OK|
 +----------------------+------+---------+---------+------------------+

 ======================================================================
 OUTER LOOP ITERATION =   12                    CPU SECONDS = 3.970E+02
 ----------------------------------------------------------------------
 |       Equation       | Rate | RMS Res | Max Res |  Linear Solution |
 +----------------------+------+---------+---------+------------------+
 | U-Mom                | 0.98 | 1.8E-04 | 1.7E-03 |       6.0E-02  OK|
 | V-Mom                | 0.97 | 8.4E-06 | 5.5E-04 |       6.5E-02  OK|
 | W-Mom                | 0.96 | 2.4E-06 | 1.7E-04 |       1.7E-01  ok|
 | P-Mass               | 1.00 | 1.1E-05 | 5.3E-04 | 13.8  6.0E-02  OK|
 +----------------------+------+---------+---------+------------------+
 | H-Energy             | 0.95 | 4.6E-04 | 3.0E-03 |       4.1E-02  OK|
 | T-Energy             | 0.94 | 8.8E-04 | 3.5E-03 | 10.2  4.1E-02  OK|
 +----------------------+------+---------+---------+------------------+
 | K-TurbKE             | 0.98 | 1.5E-03 | 5.2E-03 | 10.1  3.6E-02  OK|
 | E-Diss.K             | 0.93 | 2.9E-02 | 1.3E-01 | 10.4  1.9E-03  OK|
 +----------------------+------+---------+---------+------------------+

 ======================================================================
 OUTER LOOP ITERATION =   13                    CPU SECONDS = 4.263E+02
 ----------------------------------------------------------------------
 |       Equation       | Rate | RMS Res | Max Res |  Linear Solution |
 +----------------------+------+---------+---------+------------------+
 | U-Mom                | 0.98 | 1.8E-04 | 1.6E-03 |       5.8E-02  OK|
 | V-Mom                | 0.96 | 8.1E-06 | 5.3E-04 |       6.5E-02  OK|
 | W-Mom                | 0.96 | 2.3E-06 | 1.6E-04 |       1.7E-01  ok|
 | P-Mass               | 1.00 | 1.1E-05 | 5.0E-04 | 13.8  5.6E-02  OK|
 +----------------------+------+---------+---------+------------------+
 | H-Energy             | 0.96 | 4.4E-04 | 2.9E-03 |       3.9E-02  OK|
 | T-Energy             | 0.93 | 8.2E-04 | 3.3E-03 | 10.2  3.9E-02  OK|
 +----------------------+------+---------+---------+------------------+
 | K-TurbKE             | 0.97 | 1.5E-03 | 5.0E-03 | 10.1  3.5E-02  OK|
 | E-Diss.K             | 0.93 | 2.7E-02 | 1.2E-01 | 10.4  1.9E-03  OK|
 +----------------------+------+---------+---------+------------------+

 ======================================================================
 OUTER LOOP ITERATION =   14                    CPU SECONDS = 4.555E+02
 ----------------------------------------------------------------------
 |       Equation       | Rate | RMS Res | Max Res |  Linear Solution |
 +----------------------+------+---------+---------+------------------+
 | U-Mom                | 0.98 | 1.7E-04 | 1.6E-03 |       5.6E-02  OK|
 | V-Mom                | 0.96 | 7.8E-06 | 5.1E-04 |       6.5E-02  OK|
 | W-Mom                | 0.96 | 2.2E-06 | 1.5E-04 |       1.8E-01  ok|
 | P-Mass               | 1.00 | 1.1E-05 | 5.0E-04 | 13.8  5.2E-02  OK|
 +----------------------+------+---------+---------+------------------+
 | H-Energy             | 0.96 | 4.2E-04 | 2.8E-03 |       3.8E-02  OK|
 | T-Energy             | 0.92 | 7.5E-04 | 3.0E-03 | 10.2  3.8E-02  OK|
 +----------------------+------+---------+---------+------------------+
 | K-TurbKE             | 0.96 | 1.4E-03 | 4.7E-03 | 10.1  3.3E-02  OK|
 | E-Diss.K             | 0.92 | 2.5E-02 | 1.1E-01 | 10.4  1.8E-03  OK|
 +----------------------+------+---------+---------+------------------+

 ======================================================================
 OUTER LOOP ITERATION =   15                    CPU SECONDS = 4.848E+02
 ----------------------------------------------------------------------
 |       Equation       | Rate | RMS Res | Max Res |  Linear Solution |
 +----------------------+------+---------+---------+------------------+
 | U-Mom                | 0.98 | 1.7E-04 | 1.6E-03 |       5.5E-02  OK|
 | V-Mom                | 0.96 | 7.5E-06 | 4.9E-04 |       6.5E-02  OK|
 | W-Mom                | 0.96 | 2.1E-06 | 1.4E-04 |       1.8E-01  ok|
 | P-Mass               | 1.00 | 1.1E-05 | 5.2E-04 | 13.8  4.8E-02  OK|
 +----------------------+------+---------+---------+------------------+
 | H-Energy             | 0.96 | 4.0E-04 | 2.6E-03 |       3.7E-02  OK|
 | T-Energy             | 0.91 | 6.9E-04 | 2.8E-03 | 10.2  3.7E-02  OK|
 +----------------------+------+---------+---------+------------------+
 | K-TurbKE             | 0.96 | 1.4E-03 | 4.4E-03 | 10.1  3.2E-02  OK|
 | E-Diss.K             | 0.92 | 2.3E-02 | 9.7E-02 | 10.4  1.8E-03  OK|
 +----------------------+------+---------+---------+------------------+

 ======================================================================
 |                        Timescale Information                       |
 ----------------------------------------------------------------------
 |       Equation       |         Type          |      Timescale      |
 +----------------------+-----------------------+---------------------+
 | U-Mom-FluidDom       | Auto Timescale        |     5.97710E-01     |
 | V-Mom-FluidDom       | Auto Timescale        |     5.97710E-01     |
 | W-Mom-FluidDom       | Auto Timescale        |     5.97710E-01     |
 +----------------------+-----------------------+---------------------+
 | H-Energy-FluidDom    | Auto Timescale        |     5.97710E-01     |
 | T-Energy-TubeDom     | Auto Timescale        |     1.02641E+04     |
 +----------------------+-----------------------+---------------------+
 | K-TurbKE-FluidDom    | Auto Timescale        |     5.97710E-01     |
 | E-Diss.K-FluidDom    | Auto Timescale        |     5.97710E-01     |
 +----------------------+-----------------------+---------------------+

 ======================================================================
 OUTER LOOP ITERATION =   16                    CPU SECONDS = 5.140E+02
 ----------------------------------------------------------------------
 |       Equation       | Rate | RMS Res | Max Res |  Linear Solution |
 +----------------------+------+---------+---------+------------------+
 | U-Mom                | 0.97 | 1.6E-04 | 1.6E-03 |       5.3E-02  OK|
 | V-Mom                | 0.96 | 7.2E-06 | 4.7E-04 |       6.5E-02  OK|
 | W-Mom                | 0.96 | 2.0E-06 | 1.3E-04 |       1.8E-01  ok|
 | P-Mass               | 1.00 | 1.1E-05 | 5.5E-04 | 13.8  4.5E-02  OK|
 +----------------------+------+---------+---------+------------------+
 | H-Energy             | 0.96 | 3.9E-04 | 2.5E-03 |       3.6E-02  OK|
 | T-Energy             | 0.91 | 6.3E-04 | 2.5E-03 | 10.2  3.6E-02  OK|
 +----------------------+------+---------+---------+------------------+
 | K-TurbKE             | 0.96 | 1.3E-03 | 4.1E-03 | 10.1  3.1E-02  OK|
 | E-Diss.K             | 0.92 | 2.1E-02 | 8.8E-02 | 10.4  1.8E-03  OK|
 +----------------------+------+---------+---------+------------------+

 ======================================================================
 OUTER LOOP ITERATION =   17                    CPU SECONDS = 5.433E+02
 ----------------------------------------------------------------------
 |       Equation       | Rate | RMS Res | Max Res |  Linear Solution |
 +----------------------+------+---------+---------+------------------+
 | U-Mom                | 0.97 | 1.6E-04 | 1.5E-03 |       1.0E-01  ok|
 | V-Mom                | 0.95 | 6.8E-06 | 4.5E-04 |       1.5E-01  ok|
 | W-Mom                | 0.95 | 1.9E-06 | 1.3E-04 |       4.1E-01  ok|
 | P-Mass               | 1.00 | 1.1E-05 | 5.7E-04 |  9.5  9.9E-02  OK|
 +----------------------+------+---------+---------+------------------+
 | H-Energy             | 0.96 | 3.7E-04 | 2.4E-03 |       3.5E-02  OK|
 | T-Energy             | 0.91 | 5.7E-04 | 2.3E-03 | 10.2  3.5E-02  OK|
 +----------------------+------+---------+---------+------------------+
 | K-TurbKE             | 0.94 | 1.2E-03 | 3.8E-03 |  5.6  9.1E-02  OK|
 | E-Diss.K             | 0.85 | 1.8E-02 | 7.6E-02 | 10.4  1.8E-03  OK|
 +----------------------+------+---------+---------+------------------+

 ======================================================================
 OUTER LOOP ITERATION =   18                    CPU SECONDS = 5.718E+02
 ----------------------------------------------------------------------
 |       Equation       | Rate | RMS Res | Max Res |  Linear Solution |
 +----------------------+------+---------+---------+------------------+
 | U-Mom                | 0.96 | 1.5E-04 | 1.5E-03 |       1.1E-01  ok|
 | V-Mom                | 0.94 | 6.4E-06 | 4.2E-04 |       1.7E-01  ok|
 | W-Mom                | 0.96 | 1.9E-06 | 1.2E-04 |       4.4E-01  ok|
 | P-Mass               | 0.99 | 1.1E-05 | 5.9E-04 |  9.5  9.6E-02  OK|
 +----------------------+------+---------+---------+------------------+
 | H-Energy             | 0.96 | 3.6E-04 | 2.3E-03 |       3.4E-02  OK|
 | T-Energy             | 0.82 | 4.7E-04 | 1.9E-03 | 10.2  3.4E-02  OK|
 +----------------------+------+---------+---------+------------------+
 | K-TurbKE             | 0.93 | 1.2E-03 | 3.5E-03 | 10.1  3.6E-02  OK|
 | E-Diss.K             | 0.95 | 1.7E-02 | 7.1E-02 | 10.5  1.7E-03  OK|
 +----------------------+------+---------+---------+------------------+

 ======================================================================
 OUTER LOOP ITERATION =   19                    CPU SECONDS = 6.005E+02
 ----------------------------------------------------------------------
 |       Equation       | Rate | RMS Res | Max Res |  Linear Solution |
 +----------------------+------+---------+---------+------------------+
 | U-Mom                | 0.96 | 1.5E-04 | 1.5E-03 |       1.1E-01  ok|
 | V-Mom                | 0.95 | 6.1E-06 | 4.1E-04 |       1.7E-01  ok|
 | W-Mom                | 0.96 | 1.8E-06 | 1.2E-04 |       4.4E-01  ok|
 | P-Mass               | 0.99 | 1.1E-05 | 6.1E-04 |  9.5  9.1E-02  OK|
 +----------------------+------+---------+---------+------------------+
 | H-Energy             | 0.96 | 3.4E-04 | 2.3E-03 |       3.3E-02  OK|
 | T-Energy             | 0.99 | 4.6E-04 | 1.9E-03 | 10.2  3.3E-02  OK|
 +----------------------+------+---------+---------+------------------+
 | K-TurbKE             | 0.96 | 1.1E-03 | 3.2E-03 |  5.5  8.8E-02  OK|
 | E-Diss.K             | 0.88 | 1.5E-02 | 6.2E-02 | 10.5  1.7E-03  OK|
 +----------------------+------+---------+---------+------------------+

 ======================================================================
 OUTER LOOP ITERATION =   20                    CPU SECONDS = 6.290E+02
 ----------------------------------------------------------------------
 |       Equation       | Rate | RMS Res | Max Res |  Linear Solution |
 +----------------------+------+---------+---------+------------------+
 | U-Mom                | 0.96 | 1.4E-04 | 1.4E-03 |       1.0E-01  ok|
 | V-Mom                | 0.95 | 5.8E-06 | 4.0E-04 |       1.7E-01  ok|
 | W-Mom                | 0.95 | 1.7E-06 | 1.1E-04 |       4.3E-01  ok|
 | P-Mass               | 0.99 | 1.0E-05 | 6.4E-04 |  9.5  8.6E-02  OK|
 +----------------------+------+---------+---------+------------------+
 | H-Energy             | 0.96 | 3.3E-04 | 2.2E-03 |       3.2E-02  OK|
 | T-Energy             | 0.83 | 3.8E-04 | 1.6E-03 | 10.2  3.2E-02  OK|
 +----------------------+------+---------+---------+------------------+
 | K-TurbKE             | 0.95 | 1.0E-03 | 3.0E-03 | 10.1  3.4E-02  OK|
 | E-Diss.K             | 0.95 | 1.4E-02 | 5.9E-02 | 10.5  1.6E-03  OK|
 +----------------------+------+---------+---------+------------------+

 ======================================================================
 |                        Timescale Information                       |
 ----------------------------------------------------------------------
 |       Equation       |         Type          |      Timescale      |
 +----------------------+-----------------------+---------------------+
 | U-Mom-FluidDom       | Auto Timescale        |     5.97710E-01     |
 | V-Mom-FluidDom       | Auto Timescale        |     5.97710E-01     |
 | W-Mom-FluidDom       | Auto Timescale        |     5.97710E-01     |
 +----------------------+-----------------------+---------------------+
 | H-Energy-FluidDom    | Auto Timescale        |     5.97710E-01     |
 | T-Energy-TubeDom     | Auto Timescale        |     1.02641E+04     |
 +----------------------+-----------------------+---------------------+
 | K-TurbKE-FluidDom    | Auto Timescale        |     5.97710E-01     |
 | E-Diss.K-FluidDom    | Auto Timescale        |     5.97710E-01     |
 +----------------------+-----------------------+---------------------+

 ======================================================================
 OUTER LOOP ITERATION =   21                    CPU SECONDS = 6.575E+02
 ----------------------------------------------------------------------
 |       Equation       | Rate | RMS Res | Max Res |  Linear Solution |
 +----------------------+------+---------+---------+------------------+
 | U-Mom                | 0.96 | 1.3E-04 | 1.4E-03 |       1.0E-01  ok|
 | V-Mom                | 0.95 | 5.5E-06 | 3.9E-04 |       1.7E-01  ok|
 | W-Mom                | 0.95 | 1.6E-06 | 1.1E-04 |       4.3E-01  ok|
 | P-Mass               | 0.99 | 1.0E-05 | 6.5E-04 |  9.5  8.1E-02  OK|
 +----------------------+------+---------+---------+------------------+
 | H-Energy             | 0.96 | 3.2E-04 | 2.1E-03 |       3.1E-02  OK|
 | T-Energy             | 1.00 | 3.8E-04 | 1.6E-03 | 10.2  3.1E-02  OK|
 +----------------------+------+---------+---------+------------------+
 | K-TurbKE             | 0.97 | 1.0E-03 | 2.8E-03 |  5.5  8.0E-02  OK|
 | E-Diss.K             | 0.88 | 1.2E-02 | 5.2E-02 | 10.5  1.6E-03  OK|
 +----------------------+------+---------+---------+------------------+

 ======================================================================
 OUTER LOOP ITERATION =   22                    CPU SECONDS = 6.860E+02
 ----------------------------------------------------------------------
 |       Equation       | Rate | RMS Res | Max Res |  Linear Solution |
 +----------------------+------+---------+---------+------------------+
 | U-Mom                | 0.95 | 1.3E-04 | 1.3E-03 |       1.0E-01  ok|
 | V-Mom                | 0.95 | 5.2E-06 | 3.8E-04 |       1.7E-01  ok|
 | W-Mom                | 0.95 | 1.5E-06 | 1.2E-04 |       4.3E-01  ok|
 | P-Mass               | 0.99 | 1.0E-05 | 6.7E-04 |  9.5  7.5E-02  OK|
 +----------------------+------+---------+---------+------------------+
 | H-Energy             | 0.96 | 3.0E-04 | 2.0E-03 |       9.7E-02  OK|
 | T-Energy             | 0.84 | 3.2E-04 | 1.3E-03 |  5.6  9.7E-02  OK|
 +----------------------+------+---------+---------+------------------+
 | K-TurbKE             | 0.95 | 9.7E-04 | 2.6E-03 |  5.6  9.9E-02  OK|
 | E-Diss.K             | 0.92 | 1.1E-02 | 4.7E-02 | 10.5  1.6E-03  OK|
 +----------------------+------+---------+---------+------------------+

 ======================================================================
 OUTER LOOP ITERATION =   23                    CPU SECONDS = 7.141E+02
 ----------------------------------------------------------------------
 |       Equation       | Rate | RMS Res | Max Res |  Linear Solution |
 +----------------------+------+---------+---------+------------------+
 | U-Mom                | 0.95 | 1.2E-04 | 1.3E-03 |       9.8E-02  OK|
 | V-Mom                | 0.95 | 4.9E-06 | 3.7E-04 |       1.7E-01  ok|
 | W-Mom                | 0.95 | 1.4E-06 | 1.2E-04 |       4.3E-01  ok|
 | P-Mass               | 0.99 | 1.0E-05 | 6.9E-04 |  9.5  7.1E-02  OK|
 +----------------------+------+---------+---------+------------------+
 | H-Energy             | 0.93 | 2.8E-04 | 1.9E-03 |       3.7E-02  OK|
 | T-Energy             | 0.94 | 3.0E-04 | 1.2E-03 | 10.2  3.7E-02  OK|
 +----------------------+------+---------+---------+------------------+
 | K-TurbKE             | 0.96 | 9.3E-04 | 2.5E-03 | 10.1  3.4E-02  OK|
 | E-Diss.K             | 0.99 | 1.1E-02 | 4.7E-02 | 10.4  1.5E-03  OK|
 +----------------------+------+---------+---------+------------------+

 ======================================================================
 OUTER LOOP ITERATION =   24                    CPU SECONDS = 7.428E+02
 ----------------------------------------------------------------------
 |       Equation       | Rate | RMS Res | Max Res |  Linear Solution |
 +----------------------+------+---------+---------+------------------+
 | U-Mom                | 0.95 | 1.2E-04 | 1.2E-03 |       9.6E-02  OK|
 | V-Mom                | 0.95 | 4.7E-06 | 3.6E-04 |       1.7E-01  ok|
 | W-Mom                | 0.95 | 1.4E-06 | 1.3E-04 |       4.3E-01  ok|
 | P-Mass               | 0.99 | 1.0E-05 | 7.1E-04 |  9.5  6.6E-02  OK|
 +----------------------+------+---------+---------+------------------+
 | H-Energy             | 0.96 | 2.7E-04 | 1.9E-03 |       9.5E-02  OK|
 | T-Energy             | 1.00 | 3.0E-04 | 1.2E-03 |  5.6  9.5E-02  OK|
 +----------------------+------+---------+---------+------------------+
 | K-TurbKE             | 0.97 | 9.0E-04 | 2.4E-03 |  5.6  7.0E-02  OK|
 | E-Diss.K             | 0.88 | 9.7E-03 | 4.1E-02 | 10.5  1.6E-03  OK|
 +----------------------+------+---------+---------+------------------+

 ======================================================================
 OUTER LOOP ITERATION =   25                    CPU SECONDS = 7.709E+02
 ----------------------------------------------------------------------
 |       Equation       | Rate | RMS Res | Max Res |  Linear Solution |
 +----------------------+------+---------+---------+------------------+
 | U-Mom                | 0.94 | 1.1E-04 | 1.2E-03 |       9.5E-02  OK|
 | V-Mom                | 0.96 | 4.5E-06 | 3.5E-04 |       1.7E-01  ok|
 | W-Mom                | 0.95 | 1.3E-06 | 1.3E-04 |       4.2E-01  ok|
 | P-Mass               | 0.99 | 1.0E-05 | 7.2E-04 |  9.5  6.2E-02  OK|
 +----------------------+------+---------+---------+------------------+
 | H-Energy             | 0.93 | 2.5E-04 | 1.8E-03 |       3.6E-02  OK|
 | T-Energy             | 0.83 | 2.5E-04 | 1.0E-03 | 10.2  3.6E-02  OK|
 +----------------------+------+---------+---------+------------------+
 | K-TurbKE             | 0.96 | 8.7E-04 | 2.2E-03 |  5.6  8.5E-02  OK|
 | E-Diss.K             | 0.91 | 8.9E-03 | 3.8E-02 | 10.5  1.5E-03  OK|
 +----------------------+------+---------+---------+------------------+

 ======================================================================
 |                        Timescale Information                       |
[...]

 ======================================================================
 OUTER LOOP ITERATION =  198                    CPU SECONDS = 5.730E+03
 ----------------------------------------------------------------------
 |       Equation       | Rate | RMS Res | Max Res |  Linear Solution |
 +----------------------+------+---------+---------+------------------+
 | U-Mom                | 1.00 | 3.9E-08 | 4.8E-07 |       2.6E-02  OK|
 | V-Mom                | 1.00 | 3.5E-08 | 5.0E-07 |       5.1E-02  OK|
 | W-Mom                | 1.01 | 4.2E-08 | 6.1E-07 |       4.5E-02  OK|
 | P-Mass               | 0.99 | 3.1E-08 | 3.6E-07 |  5.3  1.9E-02  OK|
 +----------------------+------+---------+---------+------------------+
 | H-Energy             | 1.01 | 8.6E-08 | 2.0E-06 |       6.6E-02  OK|
 | T-Energy             | 0.99 | 1.0E-06 | 4.4E-06 |  5.6  6.6E-02  OK|
 +----------------------+------+---------+---------+------------------+
 | K-TurbKE             | 0.99 | 3.6E-08 | 4.8E-07 |  5.5  7.4E-02  OK|
 | E-Diss.K             | 0.98 | 5.9E-08 | 2.2E-06 | 10.5  4.7E-04  OK|
 +----------------------+------+---------+---------+------------------+

 ======================================================================
 OUTER LOOP ITERATION =  199                    CPU SECONDS = 5.758E+03
 ----------------------------------------------------------------------
 |       Equation       | Rate | RMS Res | Max Res |  Linear Solution |
 +----------------------+------+---------+---------+------------------+
 | U-Mom                | 1.00 | 3.9E-08 | 5.7E-07 |       2.6E-02  OK|
 | V-Mom                | 0.99 | 3.4E-08 | 5.0E-07 |       5.2E-02  OK|
 | W-Mom                | 0.99 | 4.1E-08 | 4.8E-07 |       4.4E-02  OK|
 | P-Mass               | 1.01 | 3.1E-08 | 3.8E-07 |  5.3  1.9E-02  OK|
 +----------------------+------+---------+---------+------------------+
 | H-Energy             | 0.99 | 8.5E-08 | 2.0E-06 |       6.4E-02  OK|
 | T-Energy             | 1.00 | 1.0E-06 | 4.7E-06 |  5.6  6.4E-02  OK|
 +----------------------+------+---------+---------+------------------+
 | K-TurbKE             | 1.00 | 3.6E-08 | 4.6E-07 |  5.5  7.4E-02  OK|
 | E-Diss.K             | 1.01 | 5.9E-08 | 2.0E-06 | 10.5  5.3E-04  OK|
 +----------------------+------+---------+---------+------------------+

 ======================================================================
 OUTER LOOP ITERATION =  200                    CPU SECONDS = 5.786E+03
 ----------------------------------------------------------------------
 |       Equation       | Rate | RMS Res | Max Res |  Linear Solution |
 +----------------------+------+---------+---------+------------------+
 | U-Mom                | 0.99 | 3.9E-08 | 4.5E-07 |       2.6E-02  OK|
 | V-Mom                | 1.00 | 3.4E-08 | 4.9E-07 |       5.1E-02  OK|
 | W-Mom                | 0.99 | 4.1E-08 | 5.6E-07 |       4.5E-02  OK|
 | P-Mass               | 1.00 | 3.1E-08 | 3.2E-07 |  5.3  1.9E-02  OK|
 +----------------------+------+---------+---------+------------------+
 | H-Energy             | 0.99 | 8.4E-08 | 2.0E-06 |       6.5E-02  OK|
 | T-Energy             | 1.00 | 1.0E-06 | 4.9E-06 |  5.6  6.5E-02  OK|
 +----------------------+------+---------+---------+------------------+
 | K-TurbKE             | 1.00 | 3.6E-08 | 5.5E-07 |  5.5  7.4E-02  OK|
 | E-Diss.K             | 1.02 | 6.0E-08 | 2.0E-06 | 10.5  5.7E-04  OK|
 +----------------------+------+---------+---------+------------------+
                   
 CFD Solver finished: Thu May 21 16:33:31 2015
 CFD Solver wall clock seconds: 4.7920E+02

 ======================================================================
              Termination and Interrupt Condition Summary
 ======================================================================
    
 CFD Solver: Run duration reached
   (Maximum number of outer iterations)

 ======================================================================
              Boundary Flow and Total Source Term Summary
 ======================================================================

 +--------------------------------------------------------------------+
 |                           U-Mom-FluidDom                           |
 +--------------------------------------------------------------------+
 Boundary         : Default Fluid Solid Interface Side 1   -6.4602E-04
 Boundary         : Inlet                                   1.2019E-03
 Boundary         : Outlet                                 -5.5591E-04
 Domain Interface : SymmetrieFluid (Side 1)                -8.9238E-03
 Domain Interface : SymmetrieFluid (Side 2)                 8.9238E-03
                                                           -----------
 Domain Imbalance :                                         1.8626E-09

 +--------------------------------------------------------------------+
 |                           V-Mom-FluidDom                           |
 +--------------------------------------------------------------------+
 Boundary         : Default Fluid Solid Interface Side 1   -5.8892E-02
 Boundary         : Inlet                                   8.8445E-09
 Boundary         : Outlet                                 -1.8872E-07
 Domain Interface : SymmetrieFluid (Side 1)                 4.8587E-02
 Domain Interface : SymmetrieFluid (Side 2)                 1.0306E-02
                                                           -----------
 Domain Imbalance :                                         9.3132E-10

 +--------------------------------------------------------------------+
 |                           W-Mom-FluidDom                           |
 +--------------------------------------------------------------------+
 Boundary         : Default Fluid Solid Interface Side 1    1.5780E-02
 Boundary         : Inlet                                  -2.3822E-09
 Boundary         : Outlet                                  5.0921E-08
 Domain Interface : SymmetrieFluid (Side 1)                 8.4154E-02
 Domain Interface : SymmetrieFluid (Side 2)                -9.9934E-02
                                                           -----------
 Domain Imbalance :                                         7.4506E-09

 +--------------------------------------------------------------------+
 |                          P-Mass-FluidDom                           |
 +--------------------------------------------------------------------+
 Boundary         : Inlet                                   1.1850E-02
 Boundary         : Outlet                                 -1.1850E-02
 Domain Interface : SymmetrieFluid (Side 1)                 5.7340E-05
 Domain Interface : SymmetrieFluid (Side 2)                -5.7334E-05
                                                           -----------
 Domain Imbalance :                                         1.1827E-08

 +--------------------------------------------------------------------+
 |                         H-Energy-FluidDom                          |
 +--------------------------------------------------------------------+
 Boundary         : Outlet                                 -2.2227E+01
 Domain Interface : Default Fluid Solid Interface (Side 1)  2.2227E+01
 Domain Interface : SymmetrieFluid (Side 1)                -2.0029E+01
 Domain Interface : SymmetrieFluid (Side 2)                 2.0029E+01
                                                           -----------
 Domain Imbalance :                                         2.0981E-05

 +--------------------------------------------------------------------+
 |                          T-Energy-TubeDom                          |
 +--------------------------------------------------------------------+
 Boundary         : TubeOuterWallHeatex                     2.2227E+01
 Domain Interface : Default Fluid Solid Interface (Side 2) -2.2227E+01
 Domain Interface : Domain Interface 1 (Side 1)             2.2116E-02
 Domain Interface : Domain Interface 1 (Side 2)            -2.2116E-02
                                                           -----------
 Domain Imbalance :                                         1.8477E-06


 +--------------------------------------------------------------------+
 |                     Normalised Imbalance Summary                   |
 +--------------------------------------------------------------------+
 |       Equation       |      Maximum Flow     |     Imbalance (%)   |
 +--------------------------------------------------------------------+
 | U-Mom-FluidDom       |       9.9934E-02      |        0.0000       |
 | V-Mom-FluidDom       |       9.9934E-02      |        0.0000       |
 | W-Mom-FluidDom       |       9.9934E-02      |        0.0000       |
 | P-Mass-FluidDom      |       1.1850E-02      |        0.0001       |
 +----------------------+-----------------------+---------------------+
 | H-Energy-FluidDom    |       2.2227E+01      |        0.0001       |
 | T-Energy-TubeDom     |       2.2227E+01      |        0.0000       |
 +----------------------+-----------------------+---------------------+

 ======================================================================
                     Wall Force and Moment Summary
 ======================================================================
                                                                          
 Notes:
 1. Pressure integrals exclude the reference pressure.  To include
    it, set the expert parameter 'include pref in forces = t'.


 +--------------------------------------------------------------------+
 |                      Pressure Force On Walls                       |
 +--------------------------------------------------------------------+
                                    X-Comp.      Y-Comp.      Z-Comp.

 Domain Group: FluidDom

 Default Fluid Solid Interface Si-3.5547E-23   5.8892E-02  -1.5780E-02
                                  -----------  -----------  -----------
 Domain Group Totals :           -3.5547E-23   5.8892E-02  -1.5780E-02


 +--------------------------------------------------------------------+
 |                       Viscous Force On Walls                       |
 +--------------------------------------------------------------------+
                                    X-Comp.      Y-Comp.      Z-Comp.

 Domain Group: FluidDom

 Default Fluid Solid Interface Si 6.4602E-04  -5.1530E-08   1.4633E-08
                                  -----------  -----------  -----------
 Domain Group Totals :            6.4602E-04  -5.1530E-08   1.4633E-08


 +--------------------------------------------------------------------+
 |                      Pressure Moment On Walls                      |
 +--------------------------------------------------------------------+
                                    X-Comp.      Y-Comp.      Z-Comp.

 Domain Group: FluidDom

 Default Fluid Solid Interface Si-1.8753E-10   1.5867E-02   5.9216E-02
                                  -----------  -----------  -----------
 Domain Group Totals :           -1.8753E-10   1.5867E-02   5.9216E-02


 +--------------------------------------------------------------------+
 |                       Viscous Moment On Walls                      |
 +--------------------------------------------------------------------+
                                    X-Comp.      Y-Comp.      Z-Comp.

 Domain Group: FluidDom

 Default Fluid Solid Interface Si 3.1674E-11  -5.1242E-06  -1.9097E-05
                                  -----------  -----------  -----------
 Domain Group Totals :            3.1674E-11  -5.1242E-06  -1.9097E-05


 +--------------------------------------------------------------------+
 |                   Locations of Maximum Residuals                   |
 +--------------------------------------------------------------------+
 |       Equation       |      Domain Name      |     Node Number     |
 +--------------------------------------------------------------------+
 | U-Mom                | FluidDom              |         158347      |
 | V-Mom                | FluidDom              |         174391      |
 | W-Mom                | FluidDom              |         139878      |
 | P-Mass               | FluidDom              |         159097      |
 +----------------------+-----------------------+---------------------+
 | H-Energy             | FluidDom              |         169041      |
 | T-Energy             | TubeDom               |          37749      |
 +----------------------+-----------------------+---------------------+
 | K-TurbKE             | FluidDom              |         158640      |
 | E-Diss.K             | FluidDom              |            253      |
 +----------------------+-----------------------+---------------------+

 ======================================================================
 |                     False Transient Information                    |
 +--------------------------------------------------------------------+
 |       Equation       |         Type          | Elapsed Pseudo-Time |
 +--------------------------------------------------------------------+
 | U-Mom-FluidDom       | Auto Timescale        |     1.19542E+02     |
 | V-Mom-FluidDom       | Auto Timescale        |     1.19542E+02     |
 | W-Mom-FluidDom       | Auto Timescale        |     1.19542E+02     |
 +----------------------+-----------------------+---------------------+
 | H-Energy-FluidDom    | Auto Timescale        |     1.19542E+02     |
 | T-Energy-TubeDom     | Auto Timescale        |     2.05283E+06     |
 +----------------------+-----------------------+---------------------+
 | K-TurbKE-FluidDom    | Auto Timescale        |     1.19542E+02     |
 | E-Diss.K-FluidDom    | Auto Timescale        |     1.19542E+02     |
 +----------------------+-----------------------+---------------------+

 +--------------------------------------------------------------------+
 |                     Average Scale Information                      |
 +--------------------------------------------------------------------+

 Domain Name : FluidDom
     Global Length                                         = 9.0800E-02
     Minimum Extent                                        = 1.4662E-02
     Maximum Extent                                        = 3.0000E+00
     Density                                               = 1.0420E+03
     Dynamic Viscosity                                     = 8.8990E-04
     Velocity                                              = 4.1771E-02
     Advection Time                                        = 2.1737E+00
     Reynolds Number                                       = 4.4411E+03
     Thermal Conductivity                                  = 6.0690E-01
     Specific Heat Capacity at Constant Pressure           = 3.4810E+03
     Prandtl Number                                        = 5.1042E+00
     Temperature Range                                     = 1.1107E+00

 Domain Name : TubeDom
     Global Length                                         = 4.6242E-02
     Minimum Extent                                        = 8.8225E-03
     Maximum Extent                                        = 3.0000E+00
     Density                                               = 9.6000E+02
     Thermal Conductivity                                  = 3.8000E-01
     Specific Heat Capacity at Constant Pressure           = 1.9000E+03
     Thermal Diffusivity                                   = 2.0833E-07
     Average Diffusion Timescale                           = 1.0264E+04
     Minimum Diffusion Timescale                           = 3.7362E+02
     Maximum Diffusion Timescale                           = 4.3200E+07
     Temperature Range                                     = 1.0092E+01

 +--------------------------------------------------------------------+
 |                     Variable Range Information                     |
 +--------------------------------------------------------------------+

 Domain Name : FluidDom
 +--------------------------------------------------------------------+
 |      Variable Name                         |    min    |    max    |
 +--------------------------------------------------------------------+
 | Density                                    |  1.04E+03 |  1.04E+03 |
 | Specific Heat Capacity at Constant Pressure|  3.48E+03 |  3.48E+03 |
 | Dynamic Viscosity                          |  8.90E-04 |  8.90E-04 |
 | Thermal Conductivity                       |  6.07E-01 |  6.07E-01 |
 | Static Entropy                             |  0.00E+00 |  1.41E+01 |
 | Velocity u                                 |  2.70E-02 |  5.70E-02 |
 | Velocity v                                 | -1.82E-04 |  5.18E-05 |
 | Velocity w                                 | -5.74E-05 |  1.16E-04 |
 | Pressure                                   | -9.85E-04 |  2.67E+00 |
 | Turbulence Kinetic Energy                  |  4.83E-06 |  3.40E-05 |
 | Turbulence Eddy Dissipation                |  2.78E-07 |  2.68E-05 |
 | Eddy Viscosity                             |  4.04E-03 |  1.32E-02 |
 | Temperature                                |  2.73E+02 |  2.74E+02 |
 | Static Enthalpy                            | -1.29E-01 |  3.87E+03 |
 +--------------------------------------------------------------------+

 Domain Name : TubeDom
 +--------------------------------------------------------------------+
 |      Variable Name                         |    min    |    max    |
 +--------------------------------------------------------------------+
 | Density                                    |  9.60E+02 |  9.60E+02 |
 | Specific Heat Capacity at Constant Pressure|  1.90E+03 |  1.90E+03 |
 | Thermal Conductivity                       |  3.80E-01 |  3.80E-01 |
 | Static Entropy                             | -1.66E+02 | -9.75E+01 |
 | Temperature                                |  2.73E+02 |  2.83E+02 |
 | Static Enthalpy                            | -4.75E+04 | -2.83E+04 |
 +--------------------------------------------------------------------+

 +--------------------------------------------------------------------+
 |           CPU Requirements of Numerical Solution - Total           |
 +--------------------------------------------------------------------+

 Subsystem Name                  Discretization       Linear Solution
                                (secs.   %total)     (secs.   %total) 
 ----------------------------------------------------------------------
 Momentum and Mass              2.32E+03  39.8 %     4.23E+02   7.2 %
 Heat Transfer                  1.15E+03  19.7 %     2.63E+02   4.5 %
 TurbKE and Diss.K              7.35E+02  12.6 %     2.91E+02   5.0 %
                                -------- -------     --------  ------
 Subsystem Summary              4.21E+03  72.1 %     9.77E+02  16.7 %

 Variable Updates               5.23E+02    9.0 %
 GGI Intersection               5.61E-01    0.0 %
 Search Calculations            9.71E-01    0.0 %
 File Reading                   8.76E+00    0.1 %
 File Writing                   6.80E+00    0.1 %
 Miscellaneous                  1.10E+02    1.9 %
                                --------
 Total                          5.84E+03

 +--------------------------------------------------------------------+
 |                   Job Information at End of Run                    |
 +--------------------------------------------------------------------+

 Job finished:   Thu May 21 16:33:33 2015

 Total wall clock time: 4.865E+02 seconds
             or: (          0:         0:         8:     6.453 )
                 (       Days:     Hours:   Minutes:   Seconds )



 --> Final synchronization point reached by all partitions.
End of solution stage.

 +--------------------------------------------------------------------+
 | The results from this run of the ANSYS CFX Solver have been        |
 | written to \\SHPC0001\HOME\LMIROSLA\APPDATA\pipe01_001.res         |
 +--------------------------------------------------------------------+

