 This run of the CFX-15.0.7 Solver started at 10:04:08 on 27 May 2015 by
 user MpiUser on RD000D3A215F5C (intel_xeon64.sse2_winnt) using the
 command:
 
  "\\hsransys.file.core.windows.net\main\apps\ANSYS Inc\v150\CFX\bin\perllib\cfx5solve.pl"
    -def compressor.def -chdir
    \\10.10.13.6\C\Resources\directory\062559398d484a32b5fbe54b01eab70e.HSR.AzureEE.HpcWorkerRole.jobdata\job-7
    -start-method MSMPI2 -part 256
 
 Point Releases and Patches installed:
 
  ANSYS, Inc. Products 15.0.7
  ANSYS Mechanical Products 15.0.7
  ANSYS Autodyn 15.0.7
  ANSYS LS-DYNA 15.0.7
  ANSYS CFX (includes ANSYS CFD-Post) 15.0.7
  ANSYS Fluent (includes ANSYS CFD-Post) 15.0.7
  ANSYS TurboGrid 15.0.7
  ANSYS Polyflow (includes ANSYS CFD-Post) 15.0.7
  ANSYS Aqwa 15.0.7
  ANSYS ICEM CFD 15.0.7
  ANSYS Icepak (includes ANSYS CFD-Post) 15.0.7
  Catia, Version 6 15.0.7
  ANSYS, Inc. License Manager 15.0.7
 
 Setting up CFX Solver run ...
 

 +--------------------------------------------------------------------+
 |                              Warning!                              |
 |                                                                    |
 | The working directory is a UNC path, but the Windows command shell |
 | is currently not configured to support UNC paths. This may cause   |
 | failure of the CFX Solver.                                         |
 |                                                                    |
 | Command shell support for UNC paths can be enabled by setting the  |
 | Windows registry key DisableUNCCheck.                              |
 +--------------------------------------------------------------------+


 +--------------------------------------------------------------------+
 |                                                                    |
 |                    CFX Command Language Upgrade                    |
 |                                                                    |
 +--------------------------------------------------------------------+

 Added /SIMULATION CONTROL/EXECUTION CONTROL/EXECUTABLE SELECTION/Double
 Precision = Off.
 

 +--------------------------------------------------------------------+
 |                                                                    |
 |                    CFX Command Language for Run                    |
 |                                                                    |
 +--------------------------------------------------------------------+

 LIBRARY:
   CEL:
     EXPRESSIONS:
       avePresExcit1 = \
         (probe(p)@Excit1_P01+probe(p)@Excit1_P02+probe(p)@Excit1_P03+probe(p)\
         @Excit1_P04+probe(p)@Excit1_P05+probe(p)@Excit1_P06+probe(p)@Excit1_P\
         07+probe(p)@Excit1_P08+probe(p)@Excit1_P09+probe(p)@Excit1_P10+probe(\
         p)@Excit1_P11+probe(p)@Excit1_P12)/12
       massFlowInlet = massFlow()@inlet
       massFlowOutlet = massFlow()@stage01S Outlet
       pressureInlet = ave(Pressure)@inlet
       pressureOutlet = ave(Pressure)@stage01S Outlet
     END
   END
   MATERIAL: Air Ideal Gas
     Material Description = Air Ideal Gas (constant Cp)
     Material Group = Air Data, Calorically Perfect Ideal Gases
     Option = Pure Substance
     Thermodynamic State = Gas
     PROPERTIES:
       Option = General Material
       EQUATION OF STATE:
         Molar Mass = 28.96 [kg kmol^-1]
         Option = Ideal Gas
       END
       SPECIFIC HEAT CAPACITY:
         Option = Value
         Specific Heat Capacity = 1.0044E+03 [J kg^-1 K^-1]
         Specific Heat Type = Constant Pressure
       END
       REFERENCE STATE:
         Option = Specified Point
         Reference Pressure = 1 [atm]
         Reference Specific Enthalpy = 0. [J/kg]
         Reference Specific Entropy = 0. [J/kg/K]
         Reference Temperature = 25 [C]
       END
       DYNAMIC VISCOSITY:
         Dynamic Viscosity = 1.831E-05 [kg m^-1 s^-1]
         Option = Value
       END
       THERMAL CONDUCTIVITY:
         Option = Value
         Thermal Conductivity = 2.61E-2 [W m^-1 K^-1]
       END
       ABSORPTION COEFFICIENT:
         Absorption Coefficient = 0.01 [m^-1]
         Option = Value
       END
       SCATTERING COEFFICIENT:
         Option = Value
         Scattering Coefficient = 0.0 [m^-1]
       END
       REFRACTIVE INDEX:
         Option = Value
         Refractive Index = 1.0 [m m^-1]
       END
     END
   END
 END
 FLOW: Flow Analysis 1
   SOLUTION UNITS:
     Angle Units = [rad]
     Length Units = [m]
     Mass Units = [kg]
     Solid Angle Units = [sr]
     Temperature Units = [K]
     Time Units = [s]
   END
   ANALYSIS TYPE:
     Option = Steady State
     EXTERNAL SOLVER COUPLING:
       Option = None
     END
   END
   DOMAIN: intakeHousing
     Coord Frame = Coord 0
     Domain Type = Fluid
     Location = B50192,B50195,B50381,B51504,B51530,B51534,B51638,B53730,B53760
     BOUNDARY: inlet
       Boundary Type = INLET
       Location = F50449.50381
       BOUNDARY CONDITIONS:
         FLOW REGIME:
           Option = Subsonic
         END
         HEAT TRANSFER:
           Option = Total Temperature
           Total Temperature = 288 [K]
         END
         MASS AND MOMENTUM:
           Normal Speed = 2.83 [m s^-1]
           Option = Normal Speed
         END
         TURBULENCE:
           Option = Medium Intensity and Eddy Viscosity Ratio
         END
       END
     END
     BOUNDARY: intake to stator00 Side 1
       Boundary Type = INTERFACE
       Location = F51794.53760
       BOUNDARY CONDITIONS:
         HEAT TRANSFER:
           Option = Conservative Interface Flux
         END
         MASS AND MOMENTUM:
           Option = Conservative Interface Flux
         END
         TURBULENCE:
           Option = Conservative Interface Flux
         END
       END
     END
     BOUNDARY: intakeHousing Default
       Boundary Type = WALL
       Location = \
         F50185.53730,F50186.53730,F50187.53730,F50189.50192,F50190.50192,F501\
         91.50192,F50193.53760,F50194.53730,F50196.50195,F50197.50195,F50203.5\
         1530,F50204.51638,F50205.53730,F50206.53730,F50207.53730,F50208.51534\
         ,F50209.51530,F50210.51638,F50211.51530,F50213.53730,F50214.51534,F50\
         215.51534,F50216.51534,F50219.53730,F50222.53730,F50225.51530,F50226.\
         51534,F50229.51638,F50230.53730,F50231.53730,F50232.50195,F50234.5019\
         5,F50235.53730,F50236.51638,F50237.51530,F50238.51530,F50240.51638,F5\
         0241.50195,F50242.51638,F50243.51530,F50244.51530,F50245.51530,F50246\
         .53730,F50248.51530,F50249.51638,F50250.51530,F50251.51530,F50252.515\
         30,F50253.53730,F50254.51530,F50255.50195,F50256.50195,F50258.51530,F\
         50259.50195,F50260.51638,F50261.53730,F50262.53730,F50263.53730,F5026\
         4.51530,F50266.51638,F50267.51638,F50268.53730,F50269.50195,F50270.51\
         638,F50271.50195,F50272.51638,F50273.51530,F50274.51504,F50275.51638,\
         F50276.51530,F50277.53730,F50278.51534,F50279.53730,F50280.53730,F502\
         82.51530,F50283.51534,F50284.51638,F50287.53730,F50288.53730,F50289.5\
         1638,F50290.50195,F50292.50195,F50293.51530,F50294.51638,F50295.51638\
         ,F50296.51638,F50297.51638,F50298.50195,F50300.51534,F50301.50195,F50\
         302.50192,F50303.51534,F50304.51638,F50305.51638,F50306.51638,F50308.\
         51638,F50311.53730,F50312.53730,F50313.50192,F50314.50195,F50315.5153\
         0,F50316.51534,F50317.51534,F50318.51504,F50319.53730,F50320.53730,F5\
         0321.51534,F50322.53730,F50323.53730,F50324.53730,F50325.53730,F50326\
         .51638,F50327.51638,F50328.53730,F50329.53730,F50330.51530,F50332.515\
         30,F50333.51530,F50334.51530,F50335.53730,F50336.51530,F50337.51530,F\
         50338.51530,F50339.53730,F50340.53730,F50342.51534,F50343.50195,F5034\
         4.53730,F50345.51530,F50346.53730,F50347.51638,F50348.51530,F50349.50\
         381,F50350.53730,F50351.53730,F50352.51534,F50353.51638,F50354.51504,\
         F50355.51530,F50356.51530,F50357.51530,F50358.50195,F50359.53730,F503\
         61.51530,F50362.51530,F50364.53730,F50366.53730,F50367.51638,F50368.5\
         1638,F50370.51638,F50371.51638,F50372.51530,F50374.51530,F50375.51530\
         ,F50376.50381,F50377.51638,F50378.51534,F50379.51638,F50380.50195,F50\
         383.51530,F50385.50195,F50386.51530,F50388.50195,F50389.51638,F50390.\
         51530,F50392.51530,F50393.51530,F50394.51530,F50395.53730,F50397.5019\
         5,F50398.53730,F50399.51638,F50400.51638,F50401.51530,F50402.51530,F5\
         0404.50195,F50406.51530,F50407.51638,F50408.50381,F50409.53730,F50411\
         .50195,F50414.51638,F50416.50381,F50418.53730,F50419.53730,F50420.515\
         30,F50421.51638,F50423.51534,F50424.51638,F50425.51530,F50426.50195,F\
         50427.51530,F50431.51530,F50432.51530,F50433.50195,F50435.51534,F5043\
         6.51638,F50437.51530,F50439.50195,F50440.53730,F50441.51638,F50442.51\
         530,F50443.51530,F50444.51534,F50445.51534,F50446.50195,F50447.50195,\
         F50448.51530,F50450.53730,F50452.53730,F50453.51530,F50458.50195,F504\
         59.53730,F50460.51530,F50462.50195,F50463.51530,F50464.50381,F50465.5\
         0195,F50467.51530,F50468.51530,F50469.51530,F50470.51530,F50471.51530\
         ,F50472.51530,F50473.51530,F50474.51530,F50475.51534,F50476.53730,F50\
         477.51530,F50478.53730,F50480.51534,F50481.50381,F50483.51530,F50484.\
         51530,F50485.50195,F50486.50195,F50487.51530,F50491.51530,F50492.5153\
         0,F50493.51530,F50494.50195,F50495.50195,F50496.50195,F50497.51530,F5\
         0498.51530,F50499.51638,F50500.53730,F50501.50192,F50502.51638,F50503\
         .50195,F50505.51504,F50506.53730,F50507.51530,F50508.51638,F50509.515\
         30,F50510.51530,F50560.51534,F50561.53730,F51505.51638,F51506.51638,F\
         51507.51638,F51508.51638,F51509.51638,F51510.51638,F51511.51638,F5151\
         2.51638,F51513.51638,F51514.51638,F51515.51638,F51516.51638,F51517.51\
         638,F51518.51638,F51519.51638,F51520.51638,F51521.51638,F51522.51638,\
         F51523.51638,F51524.51638,F51525.51638,F51526.51638,F51527.51638,F515\
         28.51638,F51529.51638,F51531.51530,F51532.51530,F51533.51530,F51535.5\
         1534,F51536.51534,F51537.51534,F51639.51638,F51640.51638,F51641.51638\
         ,F51642.51638,F51643.51638,F51644.51638,F51645.51638,F51646.51638,F51\
         647.51638,F51648.51638,F51649.51638,F51650.51638,F51651.51638,F51652.\
         51638,F51653.51638,F51654.51638,F51655.51638,F51656.51638,F51657.5163\
         8,F51658.51638,F51659.51638,F51660.51638,F51661.51638,F51806.53730,F5\
         3759.53760
       BOUNDARY CONDITIONS:
         HEAT TRANSFER:
           Option = Adiabatic
         END
         MASS AND MOMENTUM:
           Option = No Slip Wall
         END
         WALL ROUGHNESS:
           Option = Smooth Wall
         END
       END
     END
     DOMAIN MODELS:
       BUOYANCY MODEL:
         Option = Non Buoyant
       END
       DOMAIN MOTION:
         Option = Stationary
       END
       MESH DEFORMATION:
         Option = None
       END
       REFERENCE PRESSURE:
         Reference Pressure = 1 [atm]
       END
     END
     FLUID DEFINITION: Air Ideal Gas
       Material = Air Ideal Gas
       Option = Material Library
       MORPHOLOGY:
         Option = Continuous Fluid
       END
     END
     FLUID MODELS:
       COMBUSTION MODEL:
         Option = None
       END
       HEAT TRANSFER MODEL:
         Include Viscous Work Term = Off
         Option = Total Energy
       END
       THERMAL RADIATION MODEL:
         Option = None
       END
       TURBULENCE MODEL:
         Option = k epsilon
       END
       TURBULENT WALL FUNCTIONS:
         High Speed Model = Off
         Option = Scalable
       END
     END
   END
   DOMAIN: stage01R
     Coord Frame = Coord 0
     Domain Type = Fluid
     Location = Entire Passage 2
     BOUNDARY: stage01R Blade
       Boundary Type = WALL
       Frame Type = Rotating
       Location = BLADE 2
       BOUNDARY CONDITIONS:
         HEAT TRANSFER:
           Option = Adiabatic
         END
         MASS AND MOMENTUM:
           Option = No Slip Wall
         END
         WALL ROUGHNESS:
           Option = Smooth Wall
         END
       END
     END
     BOUNDARY: stage01R Default
       Boundary Type = WALL
       Frame Type = Rotating
       Location = BLD HIGH 55,BLD HIGH 56,BLD HIGH 57,BLD HIGH 58,BLD HIGH \
         59,BLD HIGH 60,BLD HIGH 61,BLD HIGH 62,BLD HIGH 63,BLD HIGH 64,BLD \
         HIGH 65,BLD HIGH 66,BLD HIGH 67,BLD HIGH 68,BLD HIGH 69,BLD HIGH \
         70,BLD HIGH 71,BLD HIGH 72,BLD HIGH 73,BLD HIGH 74,BLD HIGH 75,BLD \
         HIGH 76,BLD HIGH 77,BLD HIGH 78,BLD LOW 55,BLD LOW 56,BLD LOW 57,BLD \
         LOW 58,BLD LOW 59,BLD LOW 60,BLD LOW 61,BLD LOW 62,BLD LOW 63,BLD \
         LOW 64,BLD LOW 65,BLD LOW 66,BLD LOW 67,BLD LOW 68,BLD LOW 69,BLD \
         LOW 70,BLD LOW 71,BLD LOW 72,BLD LOW 73,BLD LOW 74,BLD LOW 75,BLD \
         LOW 76,BLD LOW 77,BLD LOW 78
       BOUNDARY CONDITIONS:
         HEAT TRANSFER:
           Option = Adiabatic
         END
         MASS AND MOMENTUM:
           Option = No Slip Wall
         END
         WALL ROUGHNESS:
           Option = Smooth Wall
         END
       END
     END
     BOUNDARY: stage01R Hub
       Boundary Type = WALL
       Coord Frame = Coord 0
       Frame Type = Rotating
       Location = HUB 2,HUB 2 10,HUB 2 11,HUB 2 12,HUB 2 13,HUB 2 14,HUB 2 \
         15,HUB 2 16,HUB 2 17,HUB 2 18,HUB 2 19,HUB 2 2,HUB 2 20,HUB 2 21,HUB \
         2 22,HUB 2 23,HUB 2 24,HUB 2 25,HUB 2 3,HUB 2 4,HUB 2 5,HUB 2 6,HUB \
         2 7,HUB 2 8,HUB 2 9
       BOUNDARY CONDITIONS:
         HEAT TRANSFER:
           Option = Adiabatic
         END
         MASS AND MOMENTUM:
           Option = No Slip Wall
         END
         WALL ROUGHNESS:
           Option = Smooth Wall
         END
       END
     END
     BOUNDARY: stage01R Shroud
       Boundary Type = WALL
       Coord Frame = Coord 0
       Frame Type = Rotating
       Location = SHROUD 2,SHROUD 2 10,SHROUD 2 11,SHROUD 2 12,SHROUD 2 \
         13,SHROUD 2 14,SHROUD 2 15,SHROUD 2 16,SHROUD 2 17,SHROUD 2 \
         18,SHROUD 2 19,SHROUD 2 2,SHROUD 2 20,SHROUD 2 21,SHROUD 2 22,SHROUD \
         2 23,SHROUD 2 24,SHROUD 2 25,SHROUD 2 3,SHROUD 2 4,SHROUD 2 5,SHROUD \
         2 6,SHROUD 2 7,SHROUD 2 8,SHROUD 2 9
       BOUNDARY CONDITIONS:
         HEAT TRANSFER:
           Option = Adiabatic
         END
         MASS AND MOMENTUM:
           Option = No Slip Wall
         END
         WALL ROUGHNESS:
           Option = Smooth Wall
         END
       END
     END
     BOUNDARY: stage01R to stator00 Side 1
       Boundary Type = INTERFACE
       Location = INFLOW 2,INFLOW 2 10,INFLOW 2 11,INFLOW 2 12,INFLOW 2 \
         13,INFLOW 2 14,INFLOW 2 15,INFLOW 2 16,INFLOW 2 17,INFLOW 2 \
         18,INFLOW 2 19,INFLOW 2 2,INFLOW 2 20,INFLOW 2 21,INFLOW 2 22,INFLOW \
         2 23,INFLOW 2 24,INFLOW 2 25,INFLOW 2 3,INFLOW 2 4,INFLOW 2 5,INFLOW \
         2 6,INFLOW 2 7,INFLOW 2 8,INFLOW 2 9
       BOUNDARY CONDITIONS:
         HEAT TRANSFER:
           Option = Conservative Interface Flux
         END
         MASS AND MOMENTUM:
           Option = Conservative Interface Flux
         END
         TURBULENCE:
           Option = Conservative Interface Flux
         END
       END
     END
     BOUNDARY: stage01S to stage01R Side 2
       Boundary Type = INTERFACE
       Location = OUTFLOW 2,OUTFLOW 2 10,OUTFLOW 2 11,OUTFLOW 2 12,OUTFLOW 2 \
         13,OUTFLOW 2 14,OUTFLOW 2 15,OUTFLOW 2 16,OUTFLOW 2 17,OUTFLOW 2 \
         18,OUTFLOW 2 19,OUTFLOW 2 2,OUTFLOW 2 20,OUTFLOW 2 21,OUTFLOW 2 \
         22,OUTFLOW 2 23,OUTFLOW 2 24,OUTFLOW 2 25,OUTFLOW 2 3,OUTFLOW 2 \
         4,OUTFLOW 2 5,OUTFLOW 2 6,OUTFLOW 2 7,OUTFLOW 2 8,OUTFLOW 2 9
       BOUNDARY CONDITIONS:
         HEAT TRANSFER:
           Option = Conservative Interface Flux
         END
         MASS AND MOMENTUM:
           Option = Conservative Interface Flux
         END
         TURBULENCE:
           Option = Conservative Interface Flux
         END
       END
     END
     DOMAIN MODELS:
       BUOYANCY MODEL:
         Option = Non Buoyant
       END
       DOMAIN MOTION:
         Alternate Rotation Model = true
         Angular Velocity = -3000 [rev min^-1]
         Option = Rotating
         AXIS DEFINITION:
           Option = Coordinate Axis
           Rotation Axis = Coord 0.3
         END
       END
       MESH DEFORMATION:
         Option = None
       END
       REFERENCE PRESSURE:
         Reference Pressure = 1 [atm]
       END
     END
     FLUID DEFINITION: Air Ideal Gas
       Material = Air Ideal Gas
       Option = Material Library
       MORPHOLOGY:
         Option = Continuous Fluid
       END
     END
     FLUID MODELS:
       COMBUSTION MODEL:
         Option = None
       END
       HEAT TRANSFER MODEL:
         Include Viscous Work Term = Off
         Option = Total Energy
       END
       THERMAL RADIATION MODEL:
         Option = None
       END
       TURBULENCE MODEL:
         Option = k epsilon
       END
       TURBULENT WALL FUNCTIONS:
         High Speed Model = Off
         Option = Scalable
       END
     END
   END
   DOMAIN: stage01S
     Coord Frame = Coord 0
     Domain Type = Fluid
     Location = Entire Passage 3
     BOUNDARY: stage01S Blade
       Boundary Type = WALL
       Location = BLADE 3
       BOUNDARY CONDITIONS:
         HEAT TRANSFER:
           Option = Adiabatic
         END
         MASS AND MOMENTUM:
           Option = No Slip Wall
         END
         WALL ROUGHNESS:
           Option = Smooth Wall
         END
       END
     END
     BOUNDARY: stage01S Default
       Boundary Type = WALL
       Location = BLD HIGH 100,BLD HIGH 101,BLD HIGH 102,BLD HIGH 103,BLD \
         HIGH 79,BLD HIGH 80,BLD HIGH 81,BLD HIGH 82,BLD HIGH 83,BLD HIGH \
         84,BLD HIGH 85,BLD HIGH 86,BLD HIGH 87,BLD HIGH 88,BLD HIGH 89,BLD \
         HIGH 90,BLD HIGH 91,BLD HIGH 92,BLD HIGH 93,BLD HIGH 94,BLD HIGH \
         95,BLD HIGH 96,BLD HIGH 97,BLD HIGH 98,BLD HIGH 99,BLD LOW 100,BLD \
         LOW 101,BLD LOW 102,BLD LOW 103,BLD LOW 79,BLD LOW 80,BLD LOW 81,BLD \
         LOW 82,BLD LOW 83,BLD LOW 84,BLD LOW 85,BLD LOW 86,BLD LOW 87,BLD \
         LOW 88,BLD LOW 89,BLD LOW 90,BLD LOW 91,BLD LOW 92,BLD LOW 93,BLD \
         LOW 94,BLD LOW 95,BLD LOW 96,BLD LOW 97,BLD LOW 98,BLD LOW 99,HUB \
         Passage 100,HUB Passage 101,HUB Passage 102,HUB Passage 103,HUB \
         Passage 79,HUB Passage 80,HUB Passage 81,HUB Passage 82,HUB Passage \
         83,HUB Passage 84,HUB Passage 85,HUB Passage 86,HUB Passage 87,HUB \
         Passage 88,HUB Passage 89,HUB Passage 90,HUB Passage 91,HUB Passage \
         92,HUB Passage 93,HUB Passage 94,HUB Passage 95,HUB Passage 96,HUB \
         Passage 97,HUB Passage 98,HUB Passage 99,SHROUD Passage 100,SHROUD \
         Passage 101,SHROUD Passage 102,SHROUD Passage 103,SHROUD Passage \
         79,SHROUD Passage 80,SHROUD Passage 81,SHROUD Passage 82,SHROUD \
         Passage 83,SHROUD Passage 84,SHROUD Passage 85,SHROUD Passage \
         86,SHROUD Passage 87,SHROUD Passage 88,SHROUD Passage 89,SHROUD \
         Passage 90,SHROUD Passage 91,SHROUD Passage 92,SHROUD Passage \
         93,SHROUD Passage 94,SHROUD Passage 95,SHROUD Passage 96,SHROUD \
         Passage 97,SHROUD Passage 98,SHROUD Passage 99
       BOUNDARY CONDITIONS:
         HEAT TRANSFER:
           Option = Adiabatic
         END
         MASS AND MOMENTUM:
           Option = No Slip Wall
         END
         WALL ROUGHNESS:
           Option = Smooth Wall
         END
       END
     END
     BOUNDARY: stage01S Hub
       Boundary Type = WALL
       Location = HUB 3
       BOUNDARY CONDITIONS:
         HEAT TRANSFER:
           Option = Adiabatic
         END
         MASS AND MOMENTUM:
           Option = No Slip Wall
         END
         WALL ROUGHNESS:
           Option = Smooth Wall
         END
       END
     END
     BOUNDARY: stage01S Outlet
       Boundary Type = OUTLET
       Location = OUTFLOW 3,OUTFLOW 3 10,OUTFLOW 3 11,OUTFLOW 3 12,OUTFLOW 3 \
         13,OUTFLOW 3 14,OUTFLOW 3 15,OUTFLOW 3 16,OUTFLOW 3 17,OUTFLOW 3 \
         18,OUTFLOW 3 19,OUTFLOW 3 2,OUTFLOW 3 20,OUTFLOW 3 21,OUTFLOW 3 \
         22,OUTFLOW 3 23,OUTFLOW 3 24,OUTFLOW 3 25,OUTFLOW 3 26,OUTFLOW 3 \
         3,OUTFLOW 3 4,OUTFLOW 3 5,OUTFLOW 3 6,OUTFLOW 3 7,OUTFLOW 3 \
         8,OUTFLOW 3 9
       BOUNDARY CONDITIONS:
         FLOW REGIME:
           Option = Subsonic
         END
         MASS AND MOMENTUM:
           Option = Average Static Pressure
           Pressure Profile Blend = 0.05
           Relative Pressure = 0 [Pa]
         END
         PRESSURE AVERAGING:
           Option = Average Over Whole Outlet
         END
       END
     END
     BOUNDARY: stage01S Shroud
       Boundary Type = WALL
       Location = SHROUD 3
       BOUNDARY CONDITIONS:
         HEAT TRANSFER:
           Option = Adiabatic
         END
         MASS AND MOMENTUM:
           Option = No Slip Wall
         END
         WALL ROUGHNESS:
           Option = Smooth Wall
         END
       END
     END
     BOUNDARY: stage01S to stage01R Side 1
       Boundary Type = INTERFACE
       Location = INFLOW 3,INFLOW 3 10,INFLOW 3 11,INFLOW 3 12,INFLOW 3 \
         13,INFLOW 3 14,INFLOW 3 15,INFLOW 3 16,INFLOW 3 17,INFLOW 3 \
         18,INFLOW 3 19,INFLOW 3 2,INFLOW 3 20,INFLOW 3 21,INFLOW 3 22,INFLOW \
         3 23,INFLOW 3 24,INFLOW 3 25,INFLOW 3 26,INFLOW 3 3,INFLOW 3 \
         4,INFLOW 3 5,INFLOW 3 6,INFLOW 3 7,INFLOW 3 8,INFLOW 3 9
       BOUNDARY CONDITIONS:
         HEAT TRANSFER:
           Option = Conservative Interface Flux
         END
         MASS AND MOMENTUM:
           Option = Conservative Interface Flux
         END
         TURBULENCE:
           Option = Conservative Interface Flux
         END
       END
     END
     DOMAIN MODELS:
       BUOYANCY MODEL:
         Option = Non Buoyant
       END
       DOMAIN MOTION:
         Option = Stationary
       END
       MESH DEFORMATION:
         Option = None
       END
       REFERENCE PRESSURE:
         Reference Pressure = 1 [atm]
       END
     END
     FLUID DEFINITION: Air Ideal Gas
       Material = Air Ideal Gas
       Option = Material Library
       MORPHOLOGY:
         Option = Continuous Fluid
       END
     END
     FLUID MODELS:
       COMBUSTION MODEL:
         Option = None
       END
       HEAT TRANSFER MODEL:
         Include Viscous Work Term = Off
         Option = Total Energy
       END
       THERMAL RADIATION MODEL:
         Option = None
       END
       TURBULENCE MODEL:
         Option = k epsilon
       END
       TURBULENT WALL FUNCTIONS:
         High Speed Model = Off
         Option = Scalable
       END
     END
   END
   DOMAIN: stator00
     Coord Frame = Coord 0
     Domain Type = Fluid
     Location = Entire Passage
     BOUNDARY: intake to stator00 Side 2
       Boundary Type = INTERFACE
       Location = INFLOW,INFLOW 10,INFLOW 11,INFLOW 12,INFLOW 13,INFLOW \
         14,INFLOW 15,INFLOW 16,INFLOW 17,INFLOW 18,INFLOW 19,INFLOW \
         20,INFLOW 21,INFLOW 22,INFLOW 23,INFLOW 24,INFLOW 25,INFLOW \
         26,INFLOW 27,INFLOW 28,INFLOW 29,INFLOW 30,INFLOW 31,INFLOW \
         32,INFLOW 33,INFLOW 34,INFLOW 35,INFLOW 36,INFLOW 37,INFLOW \
         38,INFLOW 39,INFLOW 4,INFLOW 40,INFLOW 41,INFLOW 42,INFLOW 43,INFLOW \
         44,INFLOW 45,INFLOW 46,INFLOW 47,INFLOW 48,INFLOW 49,INFLOW 5,INFLOW \
         50,INFLOW 51,INFLOW 52,INFLOW 53,INFLOW 54,INFLOW 6,INFLOW 7,INFLOW \
         8,INFLOW 9
       BOUNDARY CONDITIONS:
         HEAT TRANSFER:
           Option = Conservative Interface Flux
         END
         MASS AND MOMENTUM:
           Option = Conservative Interface Flux
         END
         TURBULENCE:
           Option = Conservative Interface Flux
         END
       END
     END
     BOUNDARY: stage01R to stator00 Side 2
       Boundary Type = INTERFACE
       Location = OUTFLOW,OUTFLOW 10,OUTFLOW 11,OUTFLOW 12,OUTFLOW 13,OUTFLOW \
         14,OUTFLOW 15,OUTFLOW 16,OUTFLOW 17,OUTFLOW 18,OUTFLOW 19,OUTFLOW \
         20,OUTFLOW 21,OUTFLOW 22,OUTFLOW 23,OUTFLOW 24,OUTFLOW 25,OUTFLOW \
         26,OUTFLOW 27,OUTFLOW 28,OUTFLOW 29,OUTFLOW 30,OUTFLOW 31,OUTFLOW \
         32,OUTFLOW 33,OUTFLOW 34,OUTFLOW 35,OUTFLOW 36,OUTFLOW 37,OUTFLOW \
         38,OUTFLOW 39,OUTFLOW 4,OUTFLOW 40,OUTFLOW 41,OUTFLOW 42,OUTFLOW \
         43,OUTFLOW 44,OUTFLOW 45,OUTFLOW 46,OUTFLOW 47,OUTFLOW 48,OUTFLOW \
         49,OUTFLOW 5,OUTFLOW 50,OUTFLOW 51,OUTFLOW 52,OUTFLOW 53,OUTFLOW \
         54,OUTFLOW 6,OUTFLOW 7,OUTFLOW 8,OUTFLOW 9
       BOUNDARY CONDITIONS:
         HEAT TRANSFER:
           Option = Conservative Interface Flux
         END
         MASS AND MOMENTUM:
           Option = Conservative Interface Flux
         END
         TURBULENCE:
           Option = Conservative Interface Flux
         END
       END
     END
     BOUNDARY: stator00 Blade
       Boundary Type = WALL
       Location = BLADE
       BOUNDARY CONDITIONS:
         HEAT TRANSFER:
           Option = Adiabatic
         END
         MASS AND MOMENTUM:
           Option = No Slip Wall
         END
         WALL ROUGHNESS:
           Option = Smooth Wall
         END
       END
     END
     BOUNDARY: stator00 Default
       Boundary Type = WALL
       Location = BLD HIGH 10,BLD HIGH 11,BLD HIGH 12,BLD HIGH 13,BLD HIGH \
         14,BLD HIGH 15,BLD HIGH 16,BLD HIGH 17,BLD HIGH 18,BLD HIGH 19,BLD \
         HIGH 20,BLD HIGH 21,BLD HIGH 22,BLD HIGH 23,BLD HIGH 24,BLD HIGH \
         25,BLD HIGH 26,BLD HIGH 27,BLD HIGH 28,BLD HIGH 29,BLD HIGH 30,BLD \
         HIGH 31,BLD HIGH 32,BLD HIGH 33,BLD HIGH 34,BLD HIGH 35,BLD HIGH \
         36,BLD HIGH 37,BLD HIGH 38,BLD HIGH 39,BLD HIGH 4,BLD HIGH 40,BLD \
         HIGH 41,BLD HIGH 42,BLD HIGH 43,BLD HIGH 44,BLD HIGH 45,BLD HIGH \
         46,BLD HIGH 47,BLD HIGH 48,BLD HIGH 49,BLD HIGH 5,BLD HIGH 50,BLD \
         HIGH 51,BLD HIGH 52,BLD HIGH 53,BLD HIGH 54,BLD HIGH 6,BLD HIGH \
         7,BLD HIGH 8,BLD HIGH 9,BLD LOW 10,BLD LOW 11,BLD LOW 12,BLD LOW \
         13,BLD LOW 14,BLD LOW 15,BLD LOW 16,BLD LOW 17,BLD LOW 18,BLD LOW \
         19,BLD LOW 20,BLD LOW 21,BLD LOW 22,BLD LOW 23,BLD LOW 24,BLD LOW \
         25,BLD LOW 26,BLD LOW 27,BLD LOW 28,BLD LOW 29,BLD LOW 30,BLD LOW \
         31,BLD LOW 32,BLD LOW 33,BLD LOW 34,BLD LOW 35,BLD LOW 36,BLD LOW \
         37,BLD LOW 38,BLD LOW 39,BLD LOW 4,BLD LOW 40,BLD LOW 41,BLD LOW \
         42,BLD LOW 43,BLD LOW 44,BLD LOW 45,BLD LOW 46,BLD LOW 47,BLD LOW \
         48,BLD LOW 49,BLD LOW 5,BLD LOW 50,BLD LOW 51,BLD LOW 52,BLD LOW \
         53,BLD LOW 54,BLD LOW 6,BLD LOW 7,BLD LOW 8,BLD LOW 9,HUB Passage \
         10,HUB Passage 11,HUB Passage 12,HUB Passage 13,HUB Passage 14,HUB \
         Passage 15,HUB Passage 16,HUB Passage 17,HUB Passage 18,HUB Passage \
         19,HUB Passage 20,HUB Passage 21,HUB Passage 22,HUB Passage 23,HUB \
         Passage 24,HUB Passage 25,HUB Passage 26,HUB Passage 27,HUB Passage \
         28,HUB Passage 29,HUB Passage 30,HUB Passage 31,HUB Passage 32,HUB \
         Passage 33,HUB Passage 34,HUB Passage 35,HUB Passage 36,HUB Passage \
         37,HUB Passage 38,HUB Passage 39,HUB Passage 4,HUB Passage 40,HUB \
         Passage 41,HUB Passage 42,HUB Passage 43,HUB Passage 44,HUB Passage \
         45,HUB Passage 46,HUB Passage 47,HUB Passage 48,HUB Passage 49,HUB \
         Passage 5,HUB Passage 50,HUB Passage 51,HUB Passage 52,HUB Passage \
         53,HUB Passage 54,HUB Passage 6,HUB Passage 7,HUB Passage 8,HUB \
         Passage 9,SHROUD Passage 10,SHROUD Passage 11,SHROUD Passage \
         12,SHROUD Passage 13,SHROUD Passage 14,SHROUD Passage 15,SHROUD \
         Passage 16,SHROUD Passage 17,SHROUD Passage 18,SHROUD Passage \
         19,SHROUD Passage 20,SHROUD Passage 21,SHROUD Passage 22,SHROUD \
         Passage 23,SHROUD Passage 24,SHROUD Passage 25,SHROUD Passage \
         26,SHROUD Passage 27,SHROUD Passage 28,SHROUD Passage 29,SHROUD \
         Passage 30,SHROUD Passage 31,SHROUD Passage 32,SHROUD Passage \
         33,SHROUD Passage 34,SHROUD Passage 35,SHROUD Passage 36,SHROUD \
         Passage 37,SHROUD Passage 38,SHROUD Passage 39,SHROUD Passage \
         4,SHROUD Passage 40,SHROUD Passage 41,SHROUD Passage 42,SHROUD \
         Passage 43,SHROUD Passage 44,SHROUD Passage 45,SHROUD Passage \
         46,SHROUD Passage 47,SHROUD Passage 48,SHROUD Passage 49,SHROUD \
         Passage 5,SHROUD Passage 50,SHROUD Passage 51,SHROUD Passage \
         52,SHROUD Passage 53,SHROUD Passage 54,SHROUD Passage 6,SHROUD \
         Passage 7,SHROUD Passage 8,SHROUD Passage 9
       BOUNDARY CONDITIONS:
         HEAT TRANSFER:
           Option = Adiabatic
         END
         MASS AND MOMENTUM:
           Option = No Slip Wall
         END
         WALL ROUGHNESS:
           Option = Smooth Wall
         END
       END
     END
     BOUNDARY: stator00 Hub
       Boundary Type = WALL
       Location = HUB
       BOUNDARY CONDITIONS:
         HEAT TRANSFER:
           Option = Adiabatic
         END
         MASS AND MOMENTUM:
           Option = No Slip Wall
         END
         WALL ROUGHNESS:
           Option = Smooth Wall
         END
       END
     END
     BOUNDARY: stator00 Shroud
       Boundary Type = WALL
       Location = SHROUD
       BOUNDARY CONDITIONS:
         HEAT TRANSFER:
           Option = Adiabatic
         END
         MASS AND MOMENTUM:
           Option = No Slip Wall
         END
         WALL ROUGHNESS:
           Option = Smooth Wall
         END
       END
     END
     DOMAIN MODELS:
       BUOYANCY MODEL:
         Option = Non Buoyant
       END
       DOMAIN MOTION:
         Option = Stationary
       END
       MESH DEFORMATION:
         Option = None
       END
       REFERENCE PRESSURE:
         Reference Pressure = 1 [atm]
       END
     END
     FLUID DEFINITION: Air Ideal Gas
       Material = Air Ideal Gas
       Option = Material Library
       MORPHOLOGY:
         Option = Continuous Fluid
       END
     END
     FLUID MODELS:
       COMBUSTION MODEL:
         Option = None
       END
       HEAT TRANSFER MODEL:
         Include Viscous Work Term = Off
         Option = Total Energy
       END
       THERMAL RADIATION MODEL:
         Option = None
       END
       TURBULENCE MODEL:
         Option = k epsilon
       END
       TURBULENT WALL FUNCTIONS:
         High Speed Model = Off
         Option = Scalable
       END
     END
   END
   DOMAIN INTERFACE: intake to stator00
     Boundary List1 = intake to stator00 Side 1
     Boundary List2 = intake to stator00 Side 2
     Interface Type = Fluid Fluid
     INTERFACE MODELS:
       Option = General Connection
       FRAME CHANGE:
         Option = None
       END
       MASS AND MOMENTUM:
         Option = Conservative Interface Flux
         MOMENTUM INTERFACE MODEL:
           Option = None
         END
       END
       PITCH CHANGE:
         Option = None
       END
     END
     MESH CONNECTION:
       Option = GGI
       INTERSECTION CONTROL:
         Option = Direct
       END
     END
   END
   DOMAIN INTERFACE: stage01R to stator00
     Boundary List1 = stage01R to stator00 Side 1
     Boundary List2 = stage01R to stator00 Side 2
     Interface Type = Fluid Fluid
     INTERFACE MODELS:
       Option = General Connection
       FRAME CHANGE:
         Option = Frozen Rotor
       END
       MASS AND MOMENTUM:
         Option = Conservative Interface Flux
         MOMENTUM INTERFACE MODEL:
           Option = None
         END
       END
       PITCH CHANGE:
         Option = Automatic
       END
     END
     MESH CONNECTION:
       Option = GGI
     END
   END
   DOMAIN INTERFACE: stage01S to stage01R
     Boundary List1 = stage01S to stage01R Side 1
     Boundary List2 = stage01S to stage01R Side 2
     Interface Type = Fluid Fluid
     INTERFACE MODELS:
       Option = General Connection
       FRAME CHANGE:
         Option = Frozen Rotor
       END
       MASS AND MOMENTUM:
         Option = Conservative Interface Flux
         MOMENTUM INTERFACE MODEL:
           Option = None
         END
       END
       PITCH CHANGE:
         Option = Automatic
       END
     END
     MESH CONNECTION:
       Option = GGI
     END
   END
   OUTPUT CONTROL:
     MONITOR OBJECTS:
       MONITOR BALANCES:
         Option = Full
       END
       MONITOR FORCES:
         Option = Full
       END
       MONITOR PARTICLES:
         Option = Full
       END
       MONITOR POINT: Excit1_P01
         Coord Frame = Coord 0
         Option = Cylindrical Coordinates
         Output Variables List = Density,Mach Number in Stn \
           Frame,Pressure,Total Pressure in Stn Frame,Total Temperature in \
           Stn Frame,Velocity in Stn Frame
         Position Axial Component = 1.5 [m]
         Position Theta Component = 5 [degree]
         Position r Component = 1.5 [m]
         MONITOR LOCATION CONTROL:
           Interpolation Type = Nearest Vertex
         END
         POSITION UPDATE FREQUENCY:
           Option = Initial Mesh Only
         END
       END
       MONITOR POINT: Excit1_P02
         Coord Frame = Coord 0
         Option = Cylindrical Coordinates
         Output Variables List = Density,Mach Number in Stn \
           Frame,Pressure,Total Pressure in Stn Frame,Total Temperature in \
           Stn Frame,Velocity in Stn Frame
         Position Axial Component = 1.5 [m]
         Position Theta Component = 35 [degree]
         Position r Component = 1.5 [m]
         MONITOR LOCATION CONTROL:
           Interpolation Type = Nearest Vertex
         END
         POSITION UPDATE FREQUENCY:
           Option = Initial Mesh Only
         END
       END
       MONITOR POINT: Excit1_P03
         Coord Frame = Coord 0
         Option = Cylindrical Coordinates
         Output Variables List = Density,Mach Number in Stn \
           Frame,Pressure,Total Pressure in Stn Frame,Total Temperature in \
           Stn Frame,Velocity in Stn Frame
         Position Axial Component = 1.5 [m]
         Position Theta Component = 65 [degree]
         Position r Component = 1.5 [m]
         MONITOR LOCATION CONTROL:
           Interpolation Type = Nearest Vertex
         END
         POSITION UPDATE FREQUENCY:
           Option = Initial Mesh Only
         END
       END
       MONITOR POINT: Excit1_P04
         Coord Frame = Coord 0
         Option = Cylindrical Coordinates
         Output Variables List = Density,Mach Number in Stn \
           Frame,Pressure,Total Pressure in Stn Frame,Total Temperature in \
           Stn Frame,Velocity in Stn Frame
         Position Axial Component = 1.5 [m]
         Position Theta Component = 95 [degree]
         Position r Component = 1.5 [m]
         MONITOR LOCATION CONTROL:
           Interpolation Type = Nearest Vertex
         END
         POSITION UPDATE FREQUENCY:
           Option = Initial Mesh Only
         END
       END
       MONITOR POINT: Excit1_P05
         Coord Frame = Coord 0
         Option = Cylindrical Coordinates
         Output Variables List = Density,Mach Number in Stn \
           Frame,Pressure,Total Pressure in Stn Frame,Total Temperature in \
           Stn Frame,Velocity in Stn Frame
         Position Axial Component = 1.5 [m]
         Position Theta Component = 125 [degree]
         Position r Component = 1.5 [m]
         MONITOR LOCATION CONTROL:
           Interpolation Type = Nearest Vertex
         END
         POSITION UPDATE FREQUENCY:
           Option = Initial Mesh Only
         END
       END
       MONITOR POINT: Excit1_P06
         Coord Frame = Coord 0
         Option = Cylindrical Coordinates
         Output Variables List = Density,Mach Number in Stn \
           Frame,Pressure,Total Pressure in Stn Frame,Total Temperature in \
           Stn Frame,Velocity in Stn Frame
         Position Axial Component = 1.5 [m]
         Position Theta Component = 155 [degree]
         Position r Component = 1.5 [m]
         MONITOR LOCATION CONTROL:
           Interpolation Type = Nearest Vertex
         END
         POSITION UPDATE FREQUENCY:
           Option = Initial Mesh Only
         END
       END
       MONITOR POINT: Excit1_P07
         Coord Frame = Coord 0
         Option = Cylindrical Coordinates
         Output Variables List = Density,Mach Number in Stn \
           Frame,Pressure,Total Pressure in Stn Frame,Total Temperature in \
           Stn Frame,Velocity in Stn Frame
         Position Axial Component = 1.5 [m]
         Position Theta Component = 185 [degree]
         Position r Component = 1.5 [m]
         MONITOR LOCATION CONTROL:
           Interpolation Type = Nearest Vertex
         END
         POSITION UPDATE FREQUENCY:
           Option = Initial Mesh Only
         END
       END
       MONITOR POINT: Excit1_P08
         Coord Frame = Coord 0
         Option = Cylindrical Coordinates
         Output Variables List = Density,Mach Number in Stn \
           Frame,Pressure,Total Pressure in Stn Frame,Total Temperature in \
           Stn Frame,Velocity in Stn Frame
         Position Axial Component = 1.5 [m]
         Position Theta Component = 215 [degree]
         Position r Component = 1.5 [m]
         MONITOR LOCATION CONTROL:
           Interpolation Type = Nearest Vertex
         END
         POSITION UPDATE FREQUENCY:
           Option = Initial Mesh Only
         END
       END
       MONITOR POINT: Excit1_P09
         Coord Frame = Coord 0
         Option = Cylindrical Coordinates
         Output Variables List = Density,Mach Number in Stn \
           Frame,Pressure,Total Pressure in Stn Frame,Total Temperature in \
           Stn Frame,Velocity in Stn Frame
         Position Axial Component = 1.5 [m]
         Position Theta Component = 245 [degree]
         Position r Component = 1.5 [m]
         MONITOR LOCATION CONTROL:
           Interpolation Type = Nearest Vertex
         END
         POSITION UPDATE FREQUENCY:
           Option = Initial Mesh Only
         END
       END
       MONITOR POINT: Excit1_P10
         Coord Frame = Coord 0
         Option = Cylindrical Coordinates
         Output Variables List = Density,Mach Number in Stn \
           Frame,Pressure,Total Pressure in Stn Frame,Total Temperature in \
           Stn Frame,Velocity in Stn Frame
         Position Axial Component = 1.5 [m]
         Position Theta Component = 275 [degree]
         Position r Component = 1.5 [m]
         MONITOR LOCATION CONTROL:
           Interpolation Type = Nearest Vertex
         END
         POSITION UPDATE FREQUENCY:
           Option = Initial Mesh Only
         END
       END
       MONITOR POINT: Excit1_P11
         Coord Frame = Coord 0
         Option = Cylindrical Coordinates
         Output Variables List = Density,Mach Number in Stn \
           Frame,Pressure,Total Pressure in Stn Frame,Total Temperature in \
           Stn Frame,Velocity in Stn Frame
         Position Axial Component = 1.5 [m]
         Position Theta Component = 305 [degree]
         Position r Component = 1.5 [m]
         MONITOR LOCATION CONTROL:
           Interpolation Type = Nearest Vertex
         END
         POSITION UPDATE FREQUENCY:
           Option = Initial Mesh Only
         END
       END
       MONITOR POINT: Excit1_P12
         Coord Frame = Coord 0
         Option = Cylindrical Coordinates
         Output Variables List = Pressure
         Position Axial Component = 1.5 [m]
         Position Theta Component = 335 [degree]
         Position r Component = 1.5 [m]
         MONITOR LOCATION CONTROL:
           Interpolation Type = Nearest Vertex
         END
         POSITION UPDATE FREQUENCY:
           Option = Initial Mesh Only
         END
       END
       MONITOR POINT: Excit2_P01
         Cartesian Coordinates = 0 [m], 5 [m], 2.5 [m]
         Coord Frame = Coord 0
         Option = Cartesian Coordinates
         Output Variables List = Absolute Pressure
         MONITOR LOCATION CONTROL:
           Interpolation Type = Nearest Vertex
         END
         POSITION UPDATE FREQUENCY:
           Option = Initial Mesh Only
         END
       END
       MONITOR POINT: Excit2_P02
         Cartesian Coordinates = 1 [m], 5 [m], 2.5 [m]
         Coord Frame = Coord 0
         Option = Cartesian Coordinates
         Output Variables List = Absolute Pressure
         MONITOR LOCATION CONTROL:
           Interpolation Type = Nearest Vertex
         END
         POSITION UPDATE FREQUENCY:
           Option = Initial Mesh Only
         END
       END
       MONITOR POINT: Excit2_P03
         Cartesian Coordinates = 2 [m], 5 [m], 2.5 [m]
         Coord Frame = Coord 0
         Option = Cartesian Coordinates
         Output Variables List = Absolute Pressure
         MONITOR LOCATION CONTROL:
           Interpolation Type = Nearest Vertex
         END
         POSITION UPDATE FREQUENCY:
           Option = Initial Mesh Only
         END
       END
       MONITOR POINT: Excit2_P04
         Cartesian Coordinates = 3 [m], 5 [m], 2.5 [m]
         Coord Frame = Coord 0
         Option = Cartesian Coordinates
         Output Variables List = Absolute Pressure
         MONITOR LOCATION CONTROL:
           Interpolation Type = Nearest Vertex
         END
         POSITION UPDATE FREQUENCY:
           Option = Initial Mesh Only
         END
       END
       MONITOR POINT: Excit2_P05
         Cartesian Coordinates = -1 [m], 5 [m], 2.5 [m]
         Coord Frame = Coord 0
         Option = Cartesian Coordinates
         Output Variables List = Absolute Pressure
         MONITOR LOCATION CONTROL:
           Interpolation Type = Nearest Vertex
         END
         POSITION UPDATE FREQUENCY:
           Option = Initial Mesh Only
         END
       END
       MONITOR POINT: Excit2_P06
         Cartesian Coordinates = -2 [m], 5 [m], 2.5 [m]
         Coord Frame = Coord 0
         Option = Cartesian Coordinates
         Output Variables List = Absolute Pressure
         MONITOR LOCATION CONTROL:
           Interpolation Type = Nearest Vertex
         END
         POSITION UPDATE FREQUENCY:
           Option = Initial Mesh Only
         END
       END
       MONITOR POINT: Excit2_P07
         Cartesian Coordinates = -3 [m], 5 [m], 2.5 [m]
         Coord Frame = Coord 0
         Option = Cartesian Coordinates
         Output Variables List = Absolute Pressure
         MONITOR LOCATION CONTROL:
           Interpolation Type = Nearest Vertex
         END
         POSITION UPDATE FREQUENCY:
           Option = Initial Mesh Only
         END
       END
       MONITOR POINT: Excit3_P01
         Cartesian Coordinates = 0 [m], 11 [m], 15 [m]
         Coord Frame = Coord 0
         Option = Cartesian Coordinates
         Output Variables List = Pressure
         MONITOR LOCATION CONTROL:
           Interpolation Type = Nearest Vertex
         END
         POSITION UPDATE FREQUENCY:
           Option = Initial Mesh Only
         END
       END
       MONITOR POINT: Excit3_P02
         Cartesian Coordinates = 3 [m], 11 [m], 15 [m]
         Coord Frame = Coord 0
         Option = Cartesian Coordinates
         Output Variables List = Pressure
         MONITOR LOCATION CONTROL:
           Interpolation Type = Nearest Vertex
         END
         POSITION UPDATE FREQUENCY:
           Option = Initial Mesh Only
         END
       END
       MONITOR POINT: Excit3_P03
         Cartesian Coordinates = -3 [m], 11 [m], 15 [m]
         Coord Frame = Coord 0
         Option = Cartesian Coordinates
         Output Variables List = Pressure
         MONITOR LOCATION CONTROL:
           Interpolation Type = Nearest Vertex
         END
         POSITION UPDATE FREQUENCY:
           Option = Initial Mesh Only
         END
       END
       MONITOR POINT: Excit3_P04
         Cartesian Coordinates = 0 [m], 14 [m], 15 [m]
         Coord Frame = Coord 0
         Option = Cartesian Coordinates
         Output Variables List = Pressure
         MONITOR LOCATION CONTROL:
           Interpolation Type = Nearest Vertex
         END
         POSITION UPDATE FREQUENCY:
           Option = Initial Mesh Only
         END
       END
       MONITOR POINT: Excit3_P05
         Cartesian Coordinates = 0 [m], 8 [m], 15 [m]
         Coord Frame = Coord 0
         Option = Cartesian Coordinates
         Output Variables List = Pressure
         MONITOR LOCATION CONTROL:
           Interpolation Type = Nearest Vertex
         END
         POSITION UPDATE FREQUENCY:
           Option = Initial Mesh Only
         END
       END
       MONITOR POINT: FlowPathM01
         Coord Frame = Coord 0
         Option = Cylindrical Coordinates
         Output Variables List = Density,Absolute Pressure,Mach Number in Stn \
           Frame,Total Pressure in Stn Frame,Total Temperature in Stn \
           Frame,Velocity in Stn Frame,Pressure
         Position Axial Component = -0.55 [m]
         Position Theta Component = 96 [degree]
         Position r Component = 1 [m]
         MONITOR LOCATION CONTROL:
           Interpolation Type = Nearest Vertex
         END
         POSITION UPDATE FREQUENCY:
           Option = Initial Mesh Only
         END
       END
       MONITOR POINT: FlowPathM02
         Coord Frame = Coord 0
         Option = Cylindrical Coordinates
         Output Variables List = Density,Absolute Pressure,Mach Number in Stn \
           Frame,Total Pressure in Stn Frame,Total Temperature in Stn \
           Frame,Velocity in Stn Frame,Pressure
         Position Axial Component = -0.65 [m]
         Position Theta Component = 95.5 [degree]
         Position r Component = 1 [m]
         MONITOR LOCATION CONTROL:
           Interpolation Type = Nearest Vertex
         END
         POSITION UPDATE FREQUENCY:
           Option = Initial Mesh Only
         END
       END
       MONITOR POINT: FlowPathM03
         Coord Frame = Coord 0
         Option = Cylindrical Coordinates
         Output Variables List = Density,Absolute Pressure,Mach Number in Stn \
           Frame,Total Pressure in Stn Frame,Total Temperature in Stn \
           Frame,Velocity in Stn Frame,Pressure
         Position Axial Component = -0.75 [m]
         Position Theta Component = 94 [degree]
         Position r Component = 1 [m]
         MONITOR LOCATION CONTROL:
           Interpolation Type = Nearest Vertex
         END
         POSITION UPDATE FREQUENCY:
           Option = Initial Mesh Only
         END
       END
       MONITOR POINT: FlowPathM04
         Coord Frame = Coord 0
         Option = Cylindrical Coordinates
         Output Variables List = Density,Absolute Pressure,Mach Number in Stn \
           Frame,Total Pressure in Stn Frame,Total Temperature in Stn \
           Frame,Velocity in Stn Frame,Pressure
         Position Axial Component = -0.85 [m]
         Position Theta Component = 92 [degree]
         Position r Component = 1 [m]
         MONITOR LOCATION CONTROL:
           Interpolation Type = Nearest Vertex
         END
         POSITION UPDATE FREQUENCY:
           Option = Initial Mesh Only
         END
       END
       MONITOR POINT: FlowPathM05
         Coord Frame = Coord 0
         Option = Cylindrical Coordinates
         Output Variables List = Density,Absolute Pressure,Mach Number in Stn \
           Frame,Total Pressure in Stn Frame,Total Temperature in Stn \
           Frame,Velocity in Stn Frame,Pressure
         Position Axial Component = -0.9 [m]
         Position Theta Component = 90 [degree]
         Position r Component = 1 [m]
         MONITOR LOCATION CONTROL:
           Interpolation Type = Nearest Vertex
         END
         POSITION UPDATE FREQUENCY:
           Option = Initial Mesh Only
         END
       END
       MONITOR POINT: FlowPathM06
         Coord Frame = Coord 0
         Option = Cylindrical Coordinates
         Output Variables List = Density,Absolute Pressure,Mach Number in Stn \
           Frame,Total Pressure in Stn Frame,Total Temperature in Stn \
           Frame,Velocity in Stn Frame,Pressure
         Position Axial Component = -0.95 [m]
         Position Theta Component = 92 [degree]
         Position r Component = 1 [m]
         MONITOR LOCATION CONTROL:
           Interpolation Type = Nearest Vertex
         END
         POSITION UPDATE FREQUENCY:
           Option = Initial Mesh Only
         END
       END
       MONITOR POINT: FlowPathM07
         Coord Frame = Coord 0
         Option = Cylindrical Coordinates
         Output Variables List = Density,Absolute Pressure,Mach Number in Stn \
           Frame,Total Pressure in Stn Frame,Total Temperature in Stn \
           Frame,Velocity in Stn Frame,Pressure
         Position Axial Component = -1.0 [m]
         Position Theta Component = 94 [degree]
         Position r Component = 1 [m]
         MONITOR LOCATION CONTROL:
           Interpolation Type = Nearest Vertex
         END
         POSITION UPDATE FREQUENCY:
           Option = Initial Mesh Only
         END
       END
       MONITOR POINT: FlowPathM08
         Coord Frame = Coord 0
         Option = Cylindrical Coordinates
         Output Variables List = Density,Absolute Pressure,Mach Number in Stn \
           Frame,Total Pressure in Stn Frame,Total Temperature in Stn \
           Frame,Velocity in Stn Frame,Pressure
         Position Axial Component = -1.05 [m]
         Position Theta Component = 95 [degree]
         Position r Component = 1 [m]
         MONITOR LOCATION CONTROL:
           Interpolation Type = Nearest Vertex
         END
         POSITION UPDATE FREQUENCY:
           Option = Initial Mesh Only
         END
       END
       MONITOR POINT: FlowPathM09
         Coord Frame = Coord 0
         Option = Cylindrical Coordinates
         Output Variables List = Density,Absolute Pressure,Mach Number in Stn \
           Frame,Total Pressure in Stn Frame,Total Temperature in Stn \
           Frame,Velocity in Stn Frame,Pressure
         Position Axial Component = -1.1 [m]
         Position Theta Component = 96 [degree]
         Position r Component = 1 [m]
         MONITOR LOCATION CONTROL:
           Interpolation Type = Nearest Vertex
         END
         POSITION UPDATE FREQUENCY:
           Option = Initial Mesh Only
         END
       END
       MONITOR POINT: FlowPathM10
         Coord Frame = Coord 0
         Option = Cylindrical Coordinates
         Output Variables List = Density,Absolute Pressure,Mach Number in Stn \
           Frame,Total Pressure in Stn Frame,Total Temperature in Stn \
           Frame,Velocity in Stn Frame,Pressure
         Position Axial Component = -1.15 [m]
         Position Theta Component = 96 [degree]
         Position r Component = 1 [m]
         MONITOR LOCATION CONTROL:
           Interpolation Type = Nearest Vertex
         END
         POSITION UPDATE FREQUENCY:
           Option = Initial Mesh Only
         END
       END
       MONITOR POINT: FlowPathM11
         Coord Frame = Coord 0
         Option = Cylindrical Coordinates
         Output Variables List = Density,Absolute Pressure,Mach Number in Stn \
           Frame,Total Pressure in Stn Frame,Total Temperature in Stn \
           Frame,Velocity in Stn Frame,Pressure
         Position Axial Component = -1.2 [m]
         Position Theta Component = 94 [degree]
         Position r Component = 1 [m]
         MONITOR LOCATION CONTROL:
           Interpolation Type = Nearest Vertex
         END
         POSITION UPDATE FREQUENCY:
           Option = Initial Mesh Only
         END
       END
       MONITOR POINT: FlowPathM12
         Coord Frame = Coord 0
         Option = Cylindrical Coordinates
         Output Variables List = Density,Absolute Pressure,Mach Number in Stn \
           Frame,Total Pressure in Stn Frame,Total Temperature in Stn \
           Frame,Velocity in Stn Frame,Pressure
         Position Axial Component = -1.25 [m]
         Position Theta Component = 92 [degree]
         Position r Component = 1 [m]
         MONITOR LOCATION CONTROL:
           Interpolation Type = Nearest Vertex
         END
         POSITION UPDATE FREQUENCY:
           Option = Initial Mesh Only
         END
       END
       MONITOR POINT: FlowPathM13
         Coord Frame = Coord 0
         Option = Cylindrical Coordinates
         Output Variables List = Density,Absolute Pressure,Mach Number in Stn \
           Frame,Total Pressure in Stn Frame,Total Temperature in Stn \
           Frame,Velocity in Stn Frame,Pressure
         Position Axial Component = -1.30 [m]
         Position Theta Component = 90.5 [degree]
         Position r Component = 1 [m]
         MONITOR LOCATION CONTROL:
           Interpolation Type = Nearest Vertex
         END
         POSITION UPDATE FREQUENCY:
           Option = Initial Mesh Only
         END
       END
       MONITOR POINT: FlowPathM14
         Coord Frame = Coord 0
         Option = Cylindrical Coordinates
         Output Variables List = Density,Absolute Pressure,Mach Number in Stn \
           Frame,Total Pressure in Stn Frame,Total Temperature in Stn \
           Frame,Velocity in Stn Frame,Pressure
         Position Axial Component = -1.35 [m]
         Position Theta Component = 89.5 [degree]
         Position r Component = 1 [m]
         MONITOR LOCATION CONTROL:
           Interpolation Type = Nearest Vertex
         END
         POSITION UPDATE FREQUENCY:
           Option = Initial Mesh Only
         END
       END
       MONITOR POINT: FlowPathM15
         Coord Frame = Coord 0
         Option = Cylindrical Coordinates
         Output Variables List = Density,Absolute Pressure,Mach Number in Stn \
           Frame,Total Pressure in Stn Frame,Total Temperature in Stn \
           Frame,Velocity in Stn Frame,Pressure
         Position Axial Component = -1.4 [m]
         Position Theta Component = 88.5 [degree]
         Position r Component = 1 [m]
         MONITOR LOCATION CONTROL:
           Interpolation Type = Nearest Vertex
         END
         POSITION UPDATE FREQUENCY:
           Option = Initial Mesh Only
         END
       END
       MONITOR POINT: FlowPathM16
         Coord Frame = Coord 0
         Option = Cylindrical Coordinates
         Output Variables List = Density,Absolute Pressure,Mach Number in Stn \
           Frame,Total Pressure in Stn Frame,Total Temperature in Stn \
           Frame,Velocity in Stn Frame,Pressure
         Position Axial Component = -1.45 [m]
         Position Theta Component = 88 [degree]
         Position r Component = 1 [m]
         MONITOR LOCATION CONTROL:
           Interpolation Type = Nearest Vertex
         END
         POSITION UPDATE FREQUENCY:
           Option = Initial Mesh Only
         END
       END
       MONITOR POINT: FlowPathM17
         Coord Frame = Coord 0
         Option = Cylindrical Coordinates
         Output Variables List = Density,Absolute Pressure,Mach Number in Stn \
           Frame,Total Pressure in Stn Frame,Total Temperature in Stn \
           Frame,Velocity in Stn Frame,Pressure
         Position Axial Component = -1.5 [m]
         Position Theta Component = 88 [degree]
         Position r Component = 1 [m]
         MONITOR LOCATION CONTROL:
           Interpolation Type = Nearest Vertex
         END
         POSITION UPDATE FREQUENCY:
           Option = Initial Mesh Only
         END
       END
       MONITOR POINT: MP_AVE_Pres_Excit1
         Coord Frame = Coord 0
         Expression Value = avePresExcit1
         Option = Expression
       END
       MONITOR POINT: MP_MassFlowIn
         Coord Frame = Coord 0
         Expression Value = massFlowInlet
         Option = Expression
       END
       MONITOR POINT: MP_MassFlowOut
         Coord Frame = Coord 0
         Expression Value = massFlowOutlet
         Option = Expression
       END
       MONITOR POINT: MP_pressureIn
         Coord Frame = Coord 0
         Expression Value = pressureInlet
         Option = Expression
       END
       MONITOR POINT: MP_pressureOut
         Coord Frame = Coord 0
         Expression Value = pressureOutlet
         Option = Expression
       END
       MONITOR POINT: rotor1_P01
         Coord Frame = Coord 0
         Option = Cylindrical Coordinates
         Output Variables List = Density,Mach Number in Stn \
           Frame,Pressure,Total Pressure in Stn Frame,Total Temperature in \
           Stn Frame,Velocity in Stn Frame
         Position Axial Component = -0.9 [m]
         Position Theta Component = 255.3 [degree]
         Position r Component = 1 [m]
         MONITOR LOCATION CONTROL:
           Interpolation Type = Nearest Vertex
         END
         POSITION UPDATE FREQUENCY:
           Option = Initial Mesh Only
         END
       END
       MONITOR POINT: rotor1_P02
         Coord Frame = Coord 0
         Option = Cylindrical Coordinates
         Output Variables List = Density,Mach Number in Stn \
           Frame,Pressure,Total Pressure in Stn Frame,Total Temperature in \
           Stn Frame,Velocity in Stn Frame
         Position Axial Component = -0.9 [m]
         Position Theta Component = 33.7 [degree]
         Position r Component = 1 [m]
         MONITOR LOCATION CONTROL:
           Interpolation Type = Nearest Vertex
         END
         POSITION UPDATE FREQUENCY:
           Option = Initial Mesh Only
         END
       END
       MONITOR POINT: rotor1_P03
         Coord Frame = Coord 0
         Option = Cylindrical Coordinates
         Output Variables List = Density,Mach Number in Stn \
           Frame,Pressure,Total Pressure in Stn Frame,Total Temperature in \
           Stn Frame,Velocity in Stn Frame
         Position Axial Component = -0.9 [m]
         Position Theta Component = 61.4 [degree]
         Position r Component = 1 [m]
         MONITOR LOCATION CONTROL:
           Interpolation Type = Nearest Vertex
         END
         POSITION UPDATE FREQUENCY:
           Option = Initial Mesh Only
         END
       END
       MONITOR POINT: rotor1_P04
         Coord Frame = Coord 0
         Option = Cylindrical Coordinates
         Output Variables List = Density,Mach Number in Stn \
           Frame,Pressure,Total Pressure in Stn Frame,Total Temperature in \
           Stn Frame,Velocity in Stn Frame
         Position Axial Component = -0.9 [m]
         Position Theta Component = 89.1 [degree]
         Position r Component = 1 [m]
         MONITOR LOCATION CONTROL:
           Interpolation Type = Nearest Vertex
         END
         POSITION UPDATE FREQUENCY:
           Option = Initial Mesh Only
         END
       END
       MONITOR POINT: rotor1_P05
         Coord Frame = Coord 0
         Option = Cylindrical Coordinates
         Output Variables List = Density,Mach Number in Stn \
           Frame,Pressure,Total Pressure in Stn Frame,Total Temperature in \
           Stn Frame,Velocity in Stn Frame
         Position Axial Component = -0.9 [m]
         Position Theta Component = 116.8 [degree]
         Position r Component = 1 [m]
         MONITOR LOCATION CONTROL:
           Interpolation Type = Nearest Vertex
         END
         POSITION UPDATE FREQUENCY:
           Option = Initial Mesh Only
         END
       END
       MONITOR POINT: rotor1_P06
         Coord Frame = Coord 0
         Option = Cylindrical Coordinates
         Output Variables List = Density,Mach Number in Stn \
           Frame,Pressure,Total Pressure in Stn Frame,Total Temperature in \
           Stn Frame,Velocity in Stn Frame
         Position Axial Component = -0.9 [m]
         Position Theta Component = 144.5 [degree]
         Position r Component = 1 [m]
         MONITOR LOCATION CONTROL:
           Interpolation Type = Nearest Vertex
         END
         POSITION UPDATE FREQUENCY:
           Option = Initial Mesh Only
         END
       END
       MONITOR POINT: rotor1_P07
         Coord Frame = Coord 0
         Option = Cylindrical Coordinates
         Output Variables List = Density,Mach Number in Stn \
           Frame,Pressure,Total Pressure in Stn Frame,Total Temperature in \
           Stn Frame,Velocity in Stn Frame
         Position Axial Component = -0.9 [m]
         Position Theta Component = 172.2 [degree]
         Position r Component = 1 [m]
         MONITOR LOCATION CONTROL:
           Interpolation Type = Nearest Vertex
         END
         POSITION UPDATE FREQUENCY:
           Option = Initial Mesh Only
         END
       END
       MONITOR POINT: rotor1_P08
         Coord Frame = Coord 0
         Option = Cylindrical Coordinates
         Output Variables List = Density,Mach Number in Stn \
           Frame,Pressure,Total Pressure in Stn Frame,Total Temperature in \
           Stn Frame,Velocity in Stn Frame
         Position Axial Component = -0.9 [m]
         Position Theta Component = 199.9 [degree]
         Position r Component = 1 [m]
         MONITOR LOCATION CONTROL:
           Interpolation Type = Nearest Vertex
         END
         POSITION UPDATE FREQUENCY:
           Option = Initial Mesh Only
         END
       END
       MONITOR POINT: rotor1_P09
         Coord Frame = Coord 0
         Option = Cylindrical Coordinates
         Output Variables List = Density,Mach Number in Stn \
           Frame,Pressure,Total Pressure in Stn Frame,Total Temperature in \
           Stn Frame,Velocity in Stn Frame
         Position Axial Component = -0.9 [m]
         Position Theta Component = 227.6 [degree]
         Position r Component = 1 [m]
         MONITOR LOCATION CONTROL:
           Interpolation Type = Nearest Vertex
         END
         POSITION UPDATE FREQUENCY:
           Option = Initial Mesh Only
         END
       END
       MONITOR POINT: rotor1_P11
         Coord Frame = Coord 0
         Option = Cylindrical Coordinates
         Output Variables List = Density,Mach Number in Stn \
           Frame,Pressure,Total Pressure in Stn Frame,Total Temperature in \
           Stn Frame,Velocity in Stn Frame
         Position Axial Component = -0.9 [m]
         Position Theta Component = 283 [degree]
         Position r Component = 1 [m]
         MONITOR LOCATION CONTROL:
           Interpolation Type = Nearest Vertex
         END
         POSITION UPDATE FREQUENCY:
           Option = Initial Mesh Only
         END
       END
       MONITOR POINT: rotor1_P12
         Coord Frame = Coord 0
         Option = Cylindrical Coordinates
         Output Variables List = Density,Mach Number in Stn \
           Frame,Pressure,Total Pressure in Stn Frame,Total Temperature in \
           Stn Frame,Velocity in Stn Frame
         Position Axial Component = -0.9 [m]
         Position Theta Component = 310.7 [degree]
         Position r Component = 1 [m]
         MONITOR LOCATION CONTROL:
           Interpolation Type = Nearest Vertex
         END
         POSITION UPDATE FREQUENCY:
           Option = Initial Mesh Only
         END
       END
       MONITOR POINT: rotor1_P13
         Coord Frame = Coord 0
         Option = Cylindrical Coordinates
         Output Variables List = Density,Mach Number in Stn \
           Frame,Pressure,Total Pressure in Stn Frame,Total Temperature in \
           Stn Frame,Velocity in Stn Frame
         Position Axial Component = -0.9 [m]
         Position Theta Component = 338.4 [degree]
         Position r Component = 1 [m]
         MONITOR LOCATION CONTROL:
           Interpolation Type = Nearest Vertex
         END
         POSITION UPDATE FREQUENCY:
           Option = Initial Mesh Only
         END
       END
       MONITOR POINT: stator0_P01
         Coord Frame = Coord 0
         Option = Cylindrical Coordinates
         Output Variables List = Density,Mach Number in Stn \
           Frame,Pressure,Total Pressure in Stn Frame,Total Temperature in \
           Stn Frame,Velocity in Stn Frame
         Position Axial Component = -0.7 [m]
         Position Theta Component = 6 [degree]
         Position r Component = 1 [m]
         MONITOR LOCATION CONTROL:
           Interpolation Type = Nearest Vertex
         END
         POSITION UPDATE FREQUENCY:
           Option = Initial Mesh Only
         END
       END
       MONITOR POINT: stator0_P02
         Coord Frame = Coord 0
         Option = Cylindrical Coordinates
         Output Variables List = Density,Mach Number in Stn \
           Frame,Pressure,Total Pressure in Stn Frame,Total Temperature in \
           Stn Frame,Velocity in Stn Frame
         Position Axial Component = -0.7 [m]
         Position Theta Component = 33.7 [degree]
         Position r Component = 1 [m]
         MONITOR LOCATION CONTROL:
           Interpolation Type = Nearest Vertex
         END
         POSITION UPDATE FREQUENCY:
           Option = Initial Mesh Only
         END
       END
       MONITOR POINT: stator0_P03
         Coord Frame = Coord 0
         Option = Cylindrical Coordinates
         Output Variables List = Density,Mach Number in Stn \
           Frame,Pressure,Total Pressure in Stn Frame,Total Temperature in \
           Stn Frame,Velocity in Stn Frame
         Position Axial Component = -0.7 [m]
         Position Theta Component = 61.4 [degree]
         Position r Component = 1 [m]
         MONITOR LOCATION CONTROL:
           Interpolation Type = Nearest Vertex
         END
         POSITION UPDATE FREQUENCY:
           Option = Initial Mesh Only
         END
       END
       MONITOR POINT: stator0_P04
         Coord Frame = Coord 0
         Option = Cylindrical Coordinates
         Output Variables List = Density,Mach Number in Stn \
           Frame,Pressure,Total Pressure in Stn Frame,Total Temperature in \
           Stn Frame,Velocity in Stn Frame
         Position Axial Component = -0.7 [m]
         Position Theta Component = 89.1 [degree]
         Position r Component = 1 [m]
         MONITOR LOCATION CONTROL:
           Interpolation Type = Nearest Vertex
         END
         POSITION UPDATE FREQUENCY:
           Option = Initial Mesh Only
         END
       END
       MONITOR POINT: stator0_P05
         Coord Frame = Coord 0
         Option = Cylindrical Coordinates
         Output Variables List = Density,Mach Number in Stn \
           Frame,Pressure,Total Pressure in Stn Frame,Total Temperature in \
           Stn Frame,Velocity in Stn Frame
         Position Axial Component = -0.7 [m]
         Position Theta Component = 116.8 [degree]
         Position r Component = 1 [m]
         MONITOR LOCATION CONTROL:
           Interpolation Type = Nearest Vertex
         END
         POSITION UPDATE FREQUENCY:
           Option = Initial Mesh Only
         END
       END
       MONITOR POINT: stator0_P06
         Coord Frame = Coord 0
         Option = Cylindrical Coordinates
         Output Variables List = Density,Mach Number in Stn \
           Frame,Pressure,Total Pressure in Stn Frame,Total Temperature in \
           Stn Frame,Velocity in Stn Frame
         Position Axial Component = -0.7 [m]
         Position Theta Component = 144.5 [degree]
         Position r Component = 1 [m]
         MONITOR LOCATION CONTROL:
           Interpolation Type = Nearest Vertex
         END
         POSITION UPDATE FREQUENCY:
           Option = Initial Mesh Only
         END
       END
       MONITOR POINT: stator0_P07
         Coord Frame = Coord 0
         Option = Cylindrical Coordinates
         Output Variables List = Density,Mach Number in Stn \
           Frame,Pressure,Total Pressure in Stn Frame,Total Temperature in \
           Stn Frame,Velocity in Stn Frame
         Position Axial Component = -0.7 [m]
         Position Theta Component = 172.2 [degree]
         Position r Component = 1 [m]
         MONITOR LOCATION CONTROL:
           Interpolation Type = Nearest Vertex
         END
         POSITION UPDATE FREQUENCY:
           Option = Initial Mesh Only
         END
       END
       MONITOR POINT: stator0_P08
         Coord Frame = Coord 0
         Option = Cylindrical Coordinates
         Output Variables List = Density,Mach Number in Stn \
           Frame,Pressure,Total Pressure in Stn Frame,Total Temperature in \
           Stn Frame,Velocity in Stn Frame
         Position Axial Component = -0.7 [m]
         Position Theta Component = 199.9 [degree]
         Position r Component = 1 [m]
         MONITOR LOCATION CONTROL:
           Interpolation Type = Nearest Vertex
         END
         POSITION UPDATE FREQUENCY:
           Option = Initial Mesh Only
         END
       END
       MONITOR POINT: stator0_P09
         Coord Frame = Coord 0
         Option = Cylindrical Coordinates
         Output Variables List = Density,Mach Number in Stn \
           Frame,Pressure,Total Pressure in Stn Frame,Total Temperature in \
           Stn Frame,Velocity in Stn Frame
         Position Axial Component = -0.7 [m]
         Position Theta Component = 227.6 [degree]
         Position r Component = 1 [m]
         MONITOR LOCATION CONTROL:
           Interpolation Type = Nearest Vertex
         END
         POSITION UPDATE FREQUENCY:
           Option = Initial Mesh Only
         END
       END
       MONITOR POINT: stator0_P10
         Coord Frame = Coord 0
         Option = Cylindrical Coordinates
         Output Variables List = Density,Mach Number in Stn \
           Frame,Pressure,Total Pressure in Stn Frame,Total Temperature in \
           Stn Frame,Velocity in Stn Frame
         Position Axial Component = -0.7 [m]
         Position Theta Component = 255.3 [degree]
         Position r Component = 1 [m]
         MONITOR LOCATION CONTROL:
           Interpolation Type = Nearest Vertex
         END
         POSITION UPDATE FREQUENCY:
           Option = Initial Mesh Only
         END
       END
       MONITOR POINT: stator0_P11
         Coord Frame = Coord 0
         Option = Cylindrical Coordinates
         Output Variables List = Density,Mach Number in Stn \
           Frame,Pressure,Total Pressure in Stn Frame,Total Temperature in \
           Stn Frame,Velocity in Stn Frame
         Position Axial Component = -0.7 [m]
         Position Theta Component = 283 [degree]
         Position r Component = 1 [m]
         MONITOR LOCATION CONTROL:
           Interpolation Type = Nearest Vertex
         END
         POSITION UPDATE FREQUENCY:
           Option = Initial Mesh Only
         END
       END
       MONITOR POINT: stator0_P12
         Coord Frame = Coord 0
         Option = Cylindrical Coordinates
         Output Variables List = Density,Mach Number in Stn \
           Frame,Pressure,Total Pressure in Stn Frame,Total Temperature in \
           Stn Frame,Velocity in Stn Frame
         Position Axial Component = -0.7 [m]
         Position Theta Component = 310.7 [degree]
         Position r Component = 1 [m]
         MONITOR LOCATION CONTROL:
           Interpolation Type = Nearest Vertex
         END
         POSITION UPDATE FREQUENCY:
           Option = Initial Mesh Only
         END
       END
       MONITOR POINT: stator0_P13
         Coord Frame = Coord 0
         Option = Cylindrical Coordinates
         Output Variables List = Density,Mach Number in Stn \
           Frame,Pressure,Total Pressure in Stn Frame,Total Temperature in \
           Stn Frame,Velocity in Stn Frame
         Position Axial Component = -0.7 [m]
         Position Theta Component = 338.4 [degree]
         Position r Component = 1 [m]
         MONITOR LOCATION CONTROL:
           Interpolation Type = Nearest Vertex
         END
         POSITION UPDATE FREQUENCY:
           Option = Initial Mesh Only
         END
       END
       MONITOR POINT: stator1_P01
         Coord Frame = Coord 0
         Option = Cylindrical Coordinates
         Output Variables List = Density,Mach Number in Stn \
           Frame,Pressure,Total Pressure in Stn Frame,Total Temperature in \
           Stn Frame,Velocity in Stn Frame
         Position Axial Component = -1.3 [m]
         Position Theta Component = 0 [degree]
         Position r Component = 1 [m]
         MONITOR LOCATION CONTROL:
           Interpolation Type = Nearest Vertex
         END
         POSITION UPDATE FREQUENCY:
           Option = Initial Mesh Only
         END
       END
       MONITOR POINT: stator1_P02
         Coord Frame = Coord 0
         Option = Cylindrical Coordinates
         Output Variables List = Density,Mach Number in Stn \
           Frame,Pressure,Total Pressure in Stn Frame,Total Temperature in \
           Stn Frame,Velocity in Stn Frame
         Position Axial Component = -1.3 [m]
         Position Theta Component = 27.7 [degree]
         Position r Component = 1 [m]
         MONITOR LOCATION CONTROL:
           Interpolation Type = Nearest Vertex
         END
         POSITION UPDATE FREQUENCY:
           Option = Initial Mesh Only
         END
       END
       MONITOR POINT: stator1_P03
         Coord Frame = Coord 0
         Option = Cylindrical Coordinates
         Output Variables List = Density,Mach Number in Stn \
           Frame,Pressure,Total Pressure in Stn Frame,Total Temperature in \
           Stn Frame,Velocity in Stn Frame
         Position Axial Component = -1.3 [m]
         Position Theta Component = 55.4 [degree]
         Position r Component = 1 [m]
         MONITOR LOCATION CONTROL:
           Interpolation Type = Nearest Vertex
         END
         POSITION UPDATE FREQUENCY:
           Option = Initial Mesh Only
         END
       END
       MONITOR POINT: stator1_P04
         Coord Frame = Coord 0
         Option = Cylindrical Coordinates
         Output Variables List = Density,Mach Number in Stn \
           Frame,Pressure,Total Pressure in Stn Frame,Total Temperature in \
           Stn Frame,Velocity in Stn Frame
         Position Axial Component = -1.3 [m]
         Position Theta Component = 83.1 [degree]
         Position r Component = 1 [m]
         MONITOR LOCATION CONTROL:
           Interpolation Type = Nearest Vertex
         END
         POSITION UPDATE FREQUENCY:
           Option = Initial Mesh Only
         END
       END
       MONITOR POINT: stator1_P05
         Coord Frame = Coord 0
         Option = Cylindrical Coordinates
         Output Variables List = Density,Mach Number in Stn \
           Frame,Pressure,Total Pressure in Stn Frame,Total Temperature in \
           Stn Frame,Velocity in Stn Frame
         Position Axial Component = -1.3 [m]
         Position Theta Component = 110.8 [degree]
         Position r Component = 1 [m]
         MONITOR LOCATION CONTROL:
           Interpolation Type = Nearest Vertex
         END
         POSITION UPDATE FREQUENCY:
           Option = Initial Mesh Only
         END
       END
       MONITOR POINT: stator1_P06
         Coord Frame = Coord 0
         Option = Cylindrical Coordinates
         Output Variables List = Density,Mach Number in Stn \
           Frame,Pressure,Total Pressure in Stn Frame,Total Temperature in \
           Stn Frame,Velocity in Stn Frame
         Position Axial Component = -1.3 [m]
         Position Theta Component = 138.5 [degree]
         Position r Component = 1 [m]
         MONITOR LOCATION CONTROL:
           Interpolation Type = Nearest Vertex
         END
         POSITION UPDATE FREQUENCY:
           Option = Initial Mesh Only
         END
       END
       MONITOR POINT: stator1_P07
         Coord Frame = Coord 0
         Option = Cylindrical Coordinates
         Output Variables List = Density,Mach Number in Stn \
           Frame,Pressure,Total Pressure in Stn Frame,Total Temperature in \
           Stn Frame,Velocity in Stn Frame
         Position Axial Component = -1.3 [m]
         Position Theta Component = 166.2 [degree]
         Position r Component = 1 [m]
         MONITOR LOCATION CONTROL:
           Interpolation Type = Nearest Vertex
         END
         POSITION UPDATE FREQUENCY:
           Option = Initial Mesh Only
         END
       END
       MONITOR POINT: stator1_P08
         Coord Frame = Coord 0
         Option = Cylindrical Coordinates
         Output Variables List = Density,Mach Number in Stn \
           Frame,Pressure,Total Pressure in Stn Frame,Total Temperature in \
           Stn Frame,Velocity in Stn Frame
         Position Axial Component = -1.3 [m]
         Position Theta Component = 193.9 [degree]
         Position r Component = 1 [m]
         MONITOR LOCATION CONTROL:
           Interpolation Type = Nearest Vertex
         END
         POSITION UPDATE FREQUENCY:
           Option = Initial Mesh Only
         END
       END
       MONITOR POINT: stator1_P09
         Coord Frame = Coord 0
         Option = Cylindrical Coordinates
         Output Variables List = Density,Mach Number in Stn \
           Frame,Pressure,Total Pressure in Stn Frame,Total Temperature in \
           Stn Frame,Velocity in Stn Frame
         Position Axial Component = -1.3 [m]
         Position Theta Component = 221.6 [degree]
         Position r Component = 1 [m]
         MONITOR LOCATION CONTROL:
           Interpolation Type = Nearest Vertex
         END
         POSITION UPDATE FREQUENCY:
           Option = Initial Mesh Only
         END
       END
       MONITOR POINT: stator1_P10
         Coord Frame = Coord 0
         Option = Cylindrical Coordinates
         Output Variables List = Density,Mach Number in Stn \
           Frame,Pressure,Total Pressure in Stn Frame,Total Temperature in \
           Stn Frame,Velocity in Stn Frame
         Position Axial Component = -1.3 [m]
         Position Theta Component = 249.3 [degree]
         Position r Component = 1 [m]
         MONITOR LOCATION CONTROL:
           Interpolation Type = Nearest Vertex
         END
         POSITION UPDATE FREQUENCY:
           Option = Initial Mesh Only
         END
       END
       MONITOR POINT: stator1_P11
         Coord Frame = Coord 0
         Option = Cylindrical Coordinates
         Output Variables List = Density,Mach Number in Stn \
           Frame,Pressure,Total Pressure in Stn Frame,Total Temperature in \
           Stn Frame,Velocity in Stn Frame
         Position Axial Component = -1.3 [m]
         Position Theta Component = 277 [degree]
         Position r Component = 1 [m]
         MONITOR LOCATION CONTROL:
           Interpolation Type = Nearest Vertex
         END
         POSITION UPDATE FREQUENCY:
           Option = Initial Mesh Only
         END
       END
       MONITOR POINT: stator1_P12
         Coord Frame = Coord 0
         Option = Cylindrical Coordinates
         Output Variables List = Density,Mach Number in Stn \
           Frame,Pressure,Total Pressure in Stn Frame,Total Temperature in \
           Stn Frame,Velocity in Stn Frame
         Position Axial Component = -1.3 [m]
         Position Theta Component = 304.7 [degree]
         Position r Component = 1 [m]
         MONITOR LOCATION CONTROL:
           Interpolation Type = Nearest Vertex
         END
         POSITION UPDATE FREQUENCY:
           Option = Initial Mesh Only
         END
       END
       MONITOR POINT: stator1_P13
         Coord Frame = Coord 0
         Option = Cylindrical Coordinates
         Output Variables List = Density,Mach Number in Stn \
           Frame,Pressure,Total Pressure in Stn Frame,Total Temperature in \
           Stn Frame,Velocity in Stn Frame
         Position Axial Component = -1.3 [m]
         Position Theta Component = 332.7 [degree]
         Position r Component = 1 [m]
         MONITOR LOCATION CONTROL:
           Interpolation Type = Nearest Vertex
         END
         POSITION UPDATE FREQUENCY:
           Option = Initial Mesh Only
         END
       END
       MONITOR RESIDUALS:
         Option = Full
       END
       MONITOR TOTALS:
         Option = Full
       END
     END
     RESULTS:
       File Compression Level = Default
       Option = Standard
     END
   END
   SOLVER CONTROL:
     Turbulence Numerics = First Order
     ADVECTION SCHEME:
       Option = High Resolution
     END
     CONVERGENCE CONTROL:
       Length Scale Option = Conservative
       Maximum Number of Iterations = 100
       Maximum Timescale = 0.001 [s]
       Minimum Number of Iterations = 100
       Timescale Control = Auto Timescale
[...]
 |                           |   20 | 27/05/15 | 10:26:43 | 1.164E+03 |
 |                           |   21 | 27/05/15 | 10:26:43 | 1.164E+03 |
 |                           |   22 | 27/05/15 | 10:26:43 | 1.164E+03 |
 |                           |   23 | 27/05/15 | 10:26:43 | 1.164E+03 |
 |                           |   24 | 27/05/15 | 10:26:43 | 1.164E+03 |
 +---------------------------+------+----------+----------+-----------+
 | RD000D3A216A16            |   25 | 27/05/15 | 10:26:43 | 1.165E+03 |
 |                           |   26 | 27/05/15 | 10:26:43 | 1.165E+03 |
 |                           |   27 | 27/05/15 | 10:26:43 | 1.165E+03 |
 |                           |   28 | 27/05/15 | 10:26:43 | 1.165E+03 |
 |                           |   29 | 27/05/15 | 10:26:43 | 1.165E+03 |
 |                           |   30 | 27/05/15 | 10:26:43 | 1.165E+03 |
 |                           |   31 | 27/05/15 | 10:26:43 | 1.165E+03 |
 |                           |   32 | 27/05/15 | 10:26:43 | 1.165E+03 |
 +---------------------------+------+----------+----------+-----------+
 | RD000D3A2167E9            |   33 | 27/05/15 | 10:26:43 | 1.165E+03 |
 |                           |   34 | 27/05/15 | 10:26:43 | 1.165E+03 |
 |                           |   35 | 27/05/15 | 10:26:43 | 1.165E+03 |
 |                           |   36 | 27/05/15 | 10:26:43 | 1.165E+03 |
 |                           |   37 | 27/05/15 | 10:26:43 | 1.165E+03 |
 |                           |   38 | 27/05/15 | 10:26:43 | 1.165E+03 |
 |                           |   39 | 27/05/15 | 10:26:43 | 1.165E+03 |
 |                           |   40 | 27/05/15 | 10:26:43 | 1.165E+03 |
 +---------------------------+------+----------+----------+-----------+
 | RD000D3A21641B            |   41 | 27/05/15 | 10:26:43 | 1.175E+03 |
 |                           |   42 | 27/05/15 | 10:26:43 | 1.175E+03 |
 |                           |   43 | 27/05/15 | 10:26:43 | 1.175E+03 |
 |                           |   44 | 27/05/15 | 10:26:43 | 1.175E+03 |
 |                           |   45 | 27/05/15 | 10:26:43 | 1.175E+03 |
 |                           |   46 | 27/05/15 | 10:26:43 | 1.175E+03 |
 |                           |   47 | 27/05/15 | 10:26:43 | 1.175E+03 |
 |                           |   48 | 27/05/15 | 10:26:43 | 1.175E+03 |
 +---------------------------+------+----------+----------+-----------+
 | RD000D3A216052            |   49 | 27/05/15 | 10:26:43 | 1.175E+03 |
 |                           |   50 | 27/05/15 | 10:26:43 | 1.175E+03 |
 |                           |   51 | 27/05/15 | 10:26:43 | 1.175E+03 |
 |                           |   52 | 27/05/15 | 10:26:43 | 1.175E+03 |
 |                           |   53 | 27/05/15 | 10:26:43 | 1.175E+03 |
 |                           |   54 | 27/05/15 | 10:26:43 | 1.175E+03 |
 |                           |   55 | 27/05/15 | 10:26:43 | 1.175E+03 |
 |                           |   56 | 27/05/15 | 10:26:43 | 1.175E+03 |
 +---------------------------+------+----------+----------+-----------+
 | RD000D3A216A11            |   57 | 27/05/15 | 10:26:43 | 1.165E+03 |
 |                           |   58 | 27/05/15 | 10:26:43 | 1.165E+03 |
 |                           |   59 | 27/05/15 | 10:26:43 | 1.165E+03 |
 |                           |   60 | 27/05/15 | 10:26:43 | 1.165E+03 |
 |                           |   61 | 27/05/15 | 10:26:43 | 1.165E+03 |
 |                           |   62 | 27/05/15 | 10:26:43 | 1.165E+03 |
 |                           |   63 | 27/05/15 | 10:26:43 | 1.165E+03 |
 |                           |   64 | 27/05/15 | 10:26:43 | 1.165E+03 |
 +---------------------------+------+----------+----------+-----------+
 | RD000D3A216F17            |   65 | 27/05/15 | 10:26:42 | 1.165E+03 |
 |                           |   66 | 27/05/15 | 10:26:42 | 1.165E+03 |
 |                           |   67 | 27/05/15 | 10:26:42 | 1.165E+03 |
 |                           |   68 | 27/05/15 | 10:26:42 | 1.165E+03 |
 |                           |   69 | 27/05/15 | 10:26:42 | 1.165E+03 |
 |                           |   70 | 27/05/15 | 10:26:42 | 1.165E+03 |
 |                           |   71 | 27/05/15 | 10:26:42 | 1.165E+03 |
 |                           |   72 | 27/05/15 | 10:26:42 | 1.165E+03 |
 +---------------------------+------+----------+----------+-----------+
 | RD000D3A21670A            |   73 | 27/05/15 | 10:26:43 | 1.165E+03 |
 |                           |   74 | 27/05/15 | 10:26:43 | 1.165E+03 |
 |                           |   75 | 27/05/15 | 10:26:43 | 1.165E+03 |
 |                           |   76 | 27/05/15 | 10:26:43 | 1.165E+03 |
 |                           |   77 | 27/05/15 | 10:26:43 | 1.165E+03 |
 |                           |   78 | 27/05/15 | 10:26:43 | 1.165E+03 |
 |                           |   79 | 27/05/15 | 10:26:43 | 1.165E+03 |
 |                           |   80 | 27/05/15 | 10:26:43 | 1.165E+03 |
 +---------------------------+------+----------+----------+-----------+
 | RD000D3A2164D2            |   81 | 27/05/15 | 10:26:43 | 1.167E+03 |
 |                           |   82 | 27/05/15 | 10:26:43 | 1.167E+03 |
 |                           |   83 | 27/05/15 | 10:26:43 | 1.167E+03 |
 |                           |   84 | 27/05/15 | 10:26:43 | 1.167E+03 |
 |                           |   85 | 27/05/15 | 10:26:43 | 1.167E+03 |
 |                           |   86 | 27/05/15 | 10:26:43 | 1.167E+03 |
 |                           |   87 | 27/05/15 | 10:26:43 | 1.167E+03 |
 |                           |   88 | 27/05/15 | 10:26:43 | 1.167E+03 |
 +---------------------------+------+----------+----------+-----------+
 | RD000D3A216DD7            |   89 | 27/05/15 | 10:26:43 | 1.165E+03 |
 |                           |   90 | 27/05/15 | 10:26:43 | 1.165E+03 |
 |                           |   91 | 27/05/15 | 10:26:43 | 1.165E+03 |
 |                           |   92 | 27/05/15 | 10:26:43 | 1.165E+03 |
 |                           |   93 | 27/05/15 | 10:26:43 | 1.165E+03 |
 |                           |   94 | 27/05/15 | 10:26:43 | 1.165E+03 |
 |                           |   95 | 27/05/15 | 10:26:43 | 1.165E+03 |
 |                           |   96 | 27/05/15 | 10:26:43 | 1.165E+03 |
 +---------------------------+------+----------+----------+-----------+
 | RD000D3A216000            |   97 | 27/05/15 | 10:26:43 | 1.201E+03 |
 |                           |   98 | 27/05/15 | 10:26:43 | 1.201E+03 |
 |                           |   99 | 27/05/15 | 10:26:43 | 1.201E+03 |
 |                           |  100 | 27/05/15 | 10:26:43 | 1.201E+03 |
 |                           |  101 | 27/05/15 | 10:26:43 | 1.201E+03 |
 |                           |  102 | 27/05/15 | 10:26:43 | 1.201E+03 |
 |                           |  103 | 27/05/15 | 10:26:43 | 1.201E+03 |
 |                           |  104 | 27/05/15 | 10:26:43 | 1.201E+03 |
 +---------------------------+------+----------+----------+-----------+
 | RD000D3A21631F            |  105 | 27/05/15 | 10:26:42 | 1.166E+03 |
 |                           |  106 | 27/05/15 | 10:26:42 | 1.166E+03 |
 |                           |  107 | 27/05/15 | 10:26:42 | 1.166E+03 |
 |                           |  108 | 27/05/15 | 10:26:42 | 1.166E+03 |
 |                           |  109 | 27/05/15 | 10:26:42 | 1.166E+03 |
 |                           |  110 | 27/05/15 | 10:26:42 | 1.166E+03 |
 |                           |  111 | 27/05/15 | 10:26:42 | 1.166E+03 |
 |                           |  112 | 27/05/15 | 10:26:42 | 1.166E+03 |
 +---------------------------+------+----------+----------+-----------+
 | RD000D3A216A6A            |  113 | 27/05/15 | 10:26:43 | 1.170E+03 |
 |                           |  114 | 27/05/15 | 10:26:43 | 1.170E+03 |
 |                           |  115 | 27/05/15 | 10:26:43 | 1.170E+03 |
 |                           |  116 | 27/05/15 | 10:26:43 | 1.170E+03 |
 |                           |  117 | 27/05/15 | 10:26:43 | 1.170E+03 |
 |                           |  118 | 27/05/15 | 10:26:43 | 1.170E+03 |
 |                           |  119 | 27/05/15 | 10:26:43 | 1.170E+03 |
 |                           |  120 | 27/05/15 | 10:26:43 | 1.170E+03 |
 +---------------------------+------+----------+----------+-----------+
 | RD000D3A216028            |  121 | 27/05/15 | 10:26:43 | 1.173E+03 |
 |                           |  122 | 27/05/15 | 10:26:43 | 1.173E+03 |
 |                           |  123 | 27/05/15 | 10:26:43 | 1.173E+03 |
 |                           |  124 | 27/05/15 | 10:26:43 | 1.173E+03 |
 |                           |  125 | 27/05/15 | 10:26:43 | 1.173E+03 |
 |                           |  126 | 27/05/15 | 10:26:43 | 1.173E+03 |
 |                           |  127 | 27/05/15 | 10:26:43 | 1.173E+03 |
 |                           |  128 | 27/05/15 | 10:26:43 | 1.173E+03 |
 +---------------------------+------+----------+----------+-----------+
 | RD000D3A216951            |  129 | 27/05/15 | 10:26:43 | 1.165E+03 |
 |                           |  130 | 27/05/15 | 10:26:43 | 1.165E+03 |
 |                           |  131 | 27/05/15 | 10:26:43 | 1.165E+03 |
 |                           |  132 | 27/05/15 | 10:26:43 | 1.165E+03 |
 |                           |  133 | 27/05/15 | 10:26:43 | 1.165E+03 |
 |                           |  134 | 27/05/15 | 10:26:43 | 1.165E+03 |
 |                           |  135 | 27/05/15 | 10:26:43 | 1.165E+03 |
 |                           |  136 | 27/05/15 | 10:26:43 | 1.165E+03 |
 +---------------------------+------+----------+----------+-----------+
 | RD000D3A21659C            |  137 | 27/05/15 | 10:26:42 | 1.165E+03 |
 |                           |  138 | 27/05/15 | 10:26:42 | 1.165E+03 |
 |                           |  139 | 27/05/15 | 10:26:42 | 1.165E+03 |
 |                           |  140 | 27/05/15 | 10:26:42 | 1.165E+03 |
 |                           |  141 | 27/05/15 | 10:26:42 | 1.165E+03 |
 |                           |  142 | 27/05/15 | 10:26:42 | 1.165E+03 |
 |                           |  143 | 27/05/15 | 10:26:42 | 1.165E+03 |
 |                           |  144 | 27/05/15 | 10:26:42 | 1.165E+03 |
 +---------------------------+------+----------+----------+-----------+
 | RD000D3A2162D1            |  145 | 27/05/15 | 10:26:42 | 1.166E+03 |
 |                           |  146 | 27/05/15 | 10:26:42 | 1.166E+03 |
 |                           |  147 | 27/05/15 | 10:26:42 | 1.166E+03 |
 |                           |  148 | 27/05/15 | 10:26:42 | 1.166E+03 |
 |                           |  149 | 27/05/15 | 10:26:42 | 1.166E+03 |
 |                           |  150 | 27/05/15 | 10:26:42 | 1.166E+03 |
 |                           |  151 | 27/05/15 | 10:26:42 | 1.166E+03 |
 |                           |  152 | 27/05/15 | 10:26:42 | 1.166E+03 |
 +---------------------------+------+----------+----------+-----------+
 | RD000D3A21627F            |  153 | 27/05/15 | 10:26:43 | 1.166E+03 |
 |                           |  154 | 27/05/15 | 10:26:43 | 1.166E+03 |
 |                           |  155 | 27/05/15 | 10:26:43 | 1.166E+03 |
 |                           |  156 | 27/05/15 | 10:26:43 | 1.166E+03 |
 |                           |  157 | 27/05/15 | 10:26:43 | 1.166E+03 |
 |                           |  158 | 27/05/15 | 10:26:43 | 1.166E+03 |
 |                           |  159 | 27/05/15 | 10:26:43 | 1.166E+03 |
 |                           |  160 | 27/05/15 | 10:26:43 | 1.166E+03 |
 +---------------------------+------+----------+----------+-----------+
 | RD000D3A216716            |  161 | 27/05/15 | 10:26:43 | 1.173E+03 |
 |                           |  162 | 27/05/15 | 10:26:43 | 1.173E+03 |
 |                           |  163 | 27/05/15 | 10:26:43 | 1.173E+03 |
 |                           |  164 | 27/05/15 | 10:26:43 | 1.173E+03 |
 |                           |  165 | 27/05/15 | 10:26:43 | 1.173E+03 |
 |                           |  166 | 27/05/15 | 10:26:43 | 1.173E+03 |
 |                           |  167 | 27/05/15 | 10:26:43 | 1.173E+03 |
 |                           |  168 | 27/05/15 | 10:26:43 | 1.173E+03 |
 +---------------------------+------+----------+----------+-----------+
 | RD000D3A216C44            |  169 | 27/05/15 | 10:26:43 | 1.164E+03 |
 |                           |  170 | 27/05/15 | 10:26:43 | 1.164E+03 |
 |                           |  171 | 27/05/15 | 10:26:43 | 1.164E+03 |
 |                           |  172 | 27/05/15 | 10:26:43 | 1.164E+03 |
 |                           |  173 | 27/05/15 | 10:26:43 | 1.164E+03 |
 |                           |  174 | 27/05/15 | 10:26:43 | 1.164E+03 |
 |                           |  175 | 27/05/15 | 10:26:43 | 1.164E+03 |
 |                           |  176 | 27/05/15 | 10:26:43 | 1.164E+03 |
 +---------------------------+------+----------+----------+-----------+
 | RD000D3A21672A            |  177 | 27/05/15 | 10:26:43 | 1.165E+03 |
 |                           |  178 | 27/05/15 | 10:26:43 | 1.165E+03 |
 |                           |  179 | 27/05/15 | 10:26:43 | 1.165E+03 |
 |                           |  180 | 27/05/15 | 10:26:43 | 1.165E+03 |
 |                           |  181 | 27/05/15 | 10:26:43 | 1.165E+03 |
 |                           |  182 | 27/05/15 | 10:26:43 | 1.165E+03 |
 |                           |  183 | 27/05/15 | 10:26:43 | 1.165E+03 |
 |                           |  184 | 27/05/15 | 10:26:43 | 1.165E+03 |
 +---------------------------+------+----------+----------+-----------+
 | RD000D3A2162AC            |  185 | 27/05/15 | 10:26:43 | 1.166E+03 |
 |                           |  186 | 27/05/15 | 10:26:43 | 1.166E+03 |
 |                           |  187 | 27/05/15 | 10:26:43 | 1.166E+03 |
 |                           |  188 | 27/05/15 | 10:26:43 | 1.166E+03 |
 |                           |  189 | 27/05/15 | 10:26:43 | 1.166E+03 |
 |                           |  190 | 27/05/15 | 10:26:43 | 1.166E+03 |
 |                           |  191 | 27/05/15 | 10:26:43 | 1.166E+03 |
 |                           |  192 | 27/05/15 | 10:26:43 | 1.166E+03 |
 +---------------------------+------+----------+----------+-----------+
 | RD000D3A216A58            |  193 | 27/05/15 | 10:26:43 | 1.166E+03 |
 |                           |  194 | 27/05/15 | 10:26:43 | 1.166E+03 |
 |                           |  195 | 27/05/15 | 10:26:43 | 1.166E+03 |
 |                           |  196 | 27/05/15 | 10:26:43 | 1.166E+03 |
 |                           |  197 | 27/05/15 | 10:26:43 | 1.166E+03 |
 |                           |  198 | 27/05/15 | 10:26:43 | 1.166E+03 |
 |                           |  199 | 27/05/15 | 10:26:43 | 1.166E+03 |
 |                           |  200 | 27/05/15 | 10:26:43 | 1.166E+03 |
 +---------------------------+------+----------+----------+-----------+
 | RD000D3A216957            |  201 | 27/05/15 | 10:26:43 | 1.164E+03 |
 |                           |  202 | 27/05/15 | 10:26:43 | 1.164E+03 |
 |                           |  203 | 27/05/15 | 10:26:43 | 1.164E+03 |
 |                           |  204 | 27/05/15 | 10:26:43 | 1.164E+03 |
 |                           |  205 | 27/05/15 | 10:26:43 | 1.164E+03 |
 |                           |  206 | 27/05/15 | 10:26:43 | 1.164E+03 |
 |                           |  207 | 27/05/15 | 10:26:43 | 1.164E+03 |
 |                           |  208 | 27/05/15 | 10:26:43 | 1.164E+03 |
 +---------------------------+------+----------+----------+-----------+
 | RD000D3A2162AB            |  209 | 27/05/15 | 10:26:43 | 1.165E+03 |
 |                           |  210 | 27/05/15 | 10:26:43 | 1.165E+03 |
 |                           |  211 | 27/05/15 | 10:26:43 | 1.165E+03 |
 |                           |  212 | 27/05/15 | 10:26:43 | 1.165E+03 |
 |                           |  213 | 27/05/15 | 10:26:43 | 1.165E+03 |
 |                           |  214 | 27/05/15 | 10:26:43 | 1.165E+03 |
 |                           |  215 | 27/05/15 | 10:26:43 | 1.165E+03 |
 |                           |  216 | 27/05/15 | 10:26:43 | 1.165E+03 |
 +---------------------------+------+----------+----------+-----------+
 | RD000D3A216312            |  217 | 27/05/15 | 10:26:43 | 1.165E+03 |
 |                           |  218 | 27/05/15 | 10:26:43 | 1.165E+03 |
 |                           |  219 | 27/05/15 | 10:26:43 | 1.165E+03 |
 |                           |  220 | 27/05/15 | 10:26:43 | 1.165E+03 |
 |                           |  221 | 27/05/15 | 10:26:43 | 1.165E+03 |
 |                           |  222 | 27/05/15 | 10:26:43 | 1.165E+03 |
 |                           |  223 | 27/05/15 | 10:26:43 | 1.165E+03 |
 |                           |  224 | 27/05/15 | 10:26:43 | 1.165E+03 |
 +---------------------------+------+----------+----------+-----------+
 | RD000D3A2162D4            |  225 | 27/05/15 | 10:26:43 | 1.165E+03 |
 |                           |  226 | 27/05/15 | 10:26:43 | 1.165E+03 |
 |                           |  227 | 27/05/15 | 10:26:43 | 1.165E+03 |
 |                           |  228 | 27/05/15 | 10:26:43 | 1.165E+03 |
 |                           |  229 | 27/05/15 | 10:26:43 | 1.165E+03 |
 |                           |  230 | 27/05/15 | 10:26:43 | 1.165E+03 |
 |                           |  231 | 27/05/15 | 10:26:43 | 1.165E+03 |
 |                           |  232 | 27/05/15 | 10:26:43 | 1.165E+03 |
 +---------------------------+------+----------+----------+-----------+
 | RD000D3A21609B            |  233 | 27/05/15 | 10:26:42 | 1.173E+03 |
 |                           |  234 | 27/05/15 | 10:26:42 | 1.173E+03 |
 |                           |  235 | 27/05/15 | 10:26:42 | 1.173E+03 |
 |                           |  236 | 27/05/15 | 10:26:42 | 1.173E+03 |
 |                           |  237 | 27/05/15 | 10:26:42 | 1.173E+03 |
 |                           |  238 | 27/05/15 | 10:26:42 | 1.173E+03 |
 |                           |  239 | 27/05/15 | 10:26:42 | 1.173E+03 |
 |                           |  240 | 27/05/15 | 10:26:42 | 1.173E+03 |
 +---------------------------+------+----------+----------+-----------+
 | RD000D3A216FBF            |  241 | 27/05/15 | 10:26:43 | 1.166E+03 |
 |                           |  242 | 27/05/15 | 10:26:43 | 1.166E+03 |
 |                           |  243 | 27/05/15 | 10:26:43 | 1.166E+03 |
 |                           |  244 | 27/05/15 | 10:26:43 | 1.166E+03 |
 |                           |  245 | 27/05/15 | 10:26:43 | 1.166E+03 |
 |                           |  246 | 27/05/15 | 10:26:43 | 1.166E+03 |
 |                           |  247 | 27/05/15 | 10:26:43 | 1.166E+03 |
 |                           |  248 | 27/05/15 | 10:26:43 | 1.166E+03 |
 +---------------------------+------+----------+----------+-----------+
 | RD000D3A216BBE            |  249 | 27/05/15 | 10:26:43 | 1.164E+03 |
 |                           |  250 | 27/05/15 | 10:26:43 | 1.164E+03 |
 |                           |  251 | 27/05/15 | 10:26:43 | 1.164E+03 |
 |                           |  252 | 27/05/15 | 10:26:43 | 1.164E+03 |
 |                           |  253 | 27/05/15 | 10:26:43 | 1.164E+03 |
 |                           |  254 | 27/05/15 | 10:26:43 | 1.164E+03 |
 |                           |  255 | 27/05/15 | 10:26:43 | 1.164E+03 |
 |                           |  256 | 27/05/15 | 10:26:43 | 1.164E+03 |
 +---------------------------+------+----------+----------+-----------+

 Total wall clock time: 1.163E+03 seconds
             or: (          0:         0:        19:    22.972 )
                 (       Days:     Hours:   Minutes:   Seconds )



 --> Final synchronization point reached by all partitions.
End of solution stage.

 +--------------------------------------------------------------------+
 | The results from this run of the ANSYS CFX Solver have been        |
 | written to                                                         |
 | \\10.10.13.6\C\Resources\directory\062559398d484a32b5fbe54b01eab7- |
 | 0e.HSR.AzureEE.HpcWorkerRole.jobdata\job-7\compressor_001.res      |
 +--------------------------------------------------------------------+


This run of the ANSYS CFX Solver has finished.
