 This run of the CFX-15.0.7 Solver started at 17:42:09 on 26 May 2015 by
 user MpiUser on RD000D3A2134C9 (intel_xeon64.sse2_winnt) using the
 command:
 
  "\\hsransys.file.core.windows.net\main\apps\ANSYS Inc\v150\CFX\bin\perllib\cfx5solve.pl"
    -def pipe01.def -chdir
    \\10.10.13.6\C\Resources\directory\62cf9c42b5fa44c999b0d9cc664765b4.HSR.AzureEE.HpcWorkerRole.jobdata\job-4
    -start-method MSMPI2 -part 128
 
 Point Releases and Patches installed:
 
  ANSYS, Inc. Products 15.0.7
  ANSYS Mechanical Products 15.0.7
  ANSYS Autodyn 15.0.7
  ANSYS LS-DYNA 15.0.7
  ANSYS CFX (includes ANSYS CFD-Post) 15.0.7
  ANSYS Fluent (includes ANSYS CFD-Post) 15.0.7
  ANSYS TurboGrid 15.0.7
  ANSYS Polyflow (includes ANSYS CFD-Post) 15.0.7
  ANSYS Aqwa 15.0.7
  ANSYS ICEM CFD 15.0.7
  ANSYS Icepak (includes ANSYS CFD-Post) 15.0.7
  Catia, Version 6 15.0.7
  ANSYS, Inc. License Manager 15.0.7
 
 Setting up CFX Solver run ...
 

 +--------------------------------------------------------------------+
 |                              Warning!                              |
 |                                                                    |
 | The working directory is a UNC path, but the Windows command shell |
 | is currently not configured to support UNC paths. This may cause   |
 | failure of the CFX Solver.                                         |
 |                                                                    |
 | Command shell support for UNC paths can be enabled by setting the  |
 | Windows registry key DisableUNCCheck.                              |
 +--------------------------------------------------------------------+


 +--------------------------------------------------------------------+
 |                                                                    |
 |                    CFX Command Language Upgrade                    |
 |                                                                    |
 +--------------------------------------------------------------------+

 Added /SIMULATION CONTROL/EXECUTION CONTROL/EXECUTABLE SELECTION/Double
 Precision = Off.
 

 +--------------------------------------------------------------------+
 |                                                                    |
 |                    CFX Command Language for Run                    |
 |                                                                    |
 +--------------------------------------------------------------------+

 LIBRARY:
   MATERIAL: Air at 25 C
     Material Description = Air at 25 C and 1 atm (dry)
     Material Group = Air Data, Constant Property Gases
     Option = Pure Substance
     Thermodynamic State = Gas
     PROPERTIES:
       Option = General Material
       EQUATION OF STATE:
         Density = 1.185 [kg m^-3]
         Molar Mass = 28.96 [kg kmol^-1]
         Option = Value
       END
       SPECIFIC HEAT CAPACITY:
         Option = Value
         Specific Heat Capacity = 1.0044E+03 [J kg^-1 K^-1]
         Specific Heat Type = Constant Pressure
       END
       REFERENCE STATE:
         Option = Specified Point
         Reference Pressure = 1 [atm]
         Reference Specific Enthalpy = 0. [J/kg]
         Reference Specific Entropy = 0. [J/kg/K]
         Reference Temperature = 25 [C]
       END
       DYNAMIC VISCOSITY:
         Dynamic Viscosity = 1.831E-05 [kg m^-1 s^-1]
         Option = Value
       END
       THERMAL CONDUCTIVITY:
         Option = Value
         Thermal Conductivity = 2.61E-02 [W m^-1 K^-1]
       END
       ABSORPTION COEFFICIENT:
         Absorption Coefficient = 0.01 [m^-1]
         Option = Value
       END
       SCATTERING COEFFICIENT:
         Option = Value
         Scattering Coefficient = 0.0 [m^-1]
       END
       REFRACTIVE INDEX:
         Option = Value
         Refractive Index = 1.0 [m m^-1]
       END
       THERMAL EXPANSIVITY:
         Option = Value
         Thermal Expansivity = 0.003356 [K^-1]
       END
     END
   END
 END
 FLOW: Flow Analysis 1
   SOLUTION UNITS:
     Angle Units = [rad]
     Length Units = [m]
     Mass Units = [kg]
     Solid Angle Units = [sr]
     Temperature Units = [K]
     Time Units = [s]
   END
   ANALYSIS TYPE:
     Option = Steady State
     EXTERNAL SOLVER COUPLING:
       Option = None
     END
   END
   DOMAIN: Default Domain
     Coord Frame = Coord 0
     Domain Type = Fluid
     Location = B16
     BOUNDARY: Default Domain Default
       Boundary Type = WALL
       Location = F17.16,F18.16,F19.16
       BOUNDARY CONDITIONS:
         MASS AND MOMENTUM:
           Option = No Slip Wall
         END
         WALL ROUGHNESS:
           Option = Smooth Wall
         END
       END
     END
     BOUNDARY: Inlet
       Boundary Type = INLET
       Location = Inlet
       BOUNDARY CONDITIONS:
         FLOW REGIME:
           Option = Subsonic
         END
         MASS AND MOMENTUM:
           Normal Speed = 0.01 [m s^-1]
           Option = Normal Speed
         END
         TURBULENCE:
           Option = Medium Intensity and Eddy Viscosity Ratio
         END
       END
     END
     BOUNDARY: Outlet
       Boundary Type = OUTLET
       Location = Outlet
       BOUNDARY CONDITIONS:
         FLOW REGIME:
           Option = Subsonic
         END
         MASS AND MOMENTUM:
           Option = Average Static Pressure
           Pressure Profile Blend = 0.05
           Relative Pressure = 0 [Pa]
         END
         PRESSURE AVERAGING:
           Option = Average Over Whole Outlet
         END
       END
     END
     BOUNDARY: Symmetry
       Boundary Type = SYMMETRY
       Location = Symmetry
     END
     DOMAIN MODELS:
       BUOYANCY MODEL:
         Option = Non Buoyant
       END
       DOMAIN MOTION:
         Option = Stationary
       END
       MESH DEFORMATION:
         Option = None
       END
       REFERENCE PRESSURE:
         Reference Pressure = 1 [atm]
       END
     END
     FLUID DEFINITION: Fluid 1
       Material = Air at 25 C
       Option = Material Library
       MORPHOLOGY:
         Option = Continuous Fluid
       END
     END
     FLUID MODELS:
       COMBUSTION MODEL:
         Option = None
       END
       HEAT TRANSFER MODEL:
         Fluid Temperature = 25 [C]
         Option = Isothermal
       END
       THERMAL RADIATION MODEL:
         Option = None
       END
       TURBULENCE MODEL:
         Option = k epsilon
       END
       TURBULENT WALL FUNCTIONS:
         Option = Scalable
       END
     END
   END
   OUTPUT CONTROL:
     RESULTS:
       File Compression Level = Default
       Option = Standard
     END
   END
   SOLVER CONTROL:
     Turbulence Numerics = First Order
     ADVECTION SCHEME:
       Option = High Resolution
     END
     CONVERGENCE CONTROL:
       Length Scale Option = Conservative
       Maximum Number of Iterations = 100
       Minimum Number of Iterations = 1
       Timescale Control = Auto Timescale
       Timescale Factor = 1.0
     END
     CONVERGENCE CRITERIA:
       Residual Target = 1.E-4
       Residual Type = RMS
     END
     DYNAMIC MODEL CONTROL:
       Global Dynamic Model Control = On
     END
   END
 END
 COMMAND FILE:
   Version = 15.0
   Results Version = 15.0.7
 END
 SIMULATION CONTROL:
   EXECUTION CONTROL:
     EXECUTABLE SELECTION:
       Double Precision = Off
     END
     PARALLEL HOST LIBRARY:
       HOST DEFINITION: rd000d3a2134c9
         Host Architecture String = winnt-amd64
         Installation Root = \\hsransys.file.core.windows.net\main\apps\ANSYS \
           Inc\v%v\CFX
       END
     END
     PARTITIONER STEP CONTROL:
       PARTITIONING TYPE:
         Option = MeTiS
         MeTiS Type = k-way
         Partition Size Rule = Automatic
         Partition Weight Factors = 0.00781, 0.00781, 0.00781, 0.00781, \
           0.00781, 0.00781, 0.00781, 0.00781, 0.00781, 0.00781, 0.00781, \
           0.00781, 0.00781, 0.00781, 0.00781, 0.00781, 0.00781, 0.00781, \
           0.00781, 0.00781, 0.00781, 0.00781, 0.00781, 0.00781, 0.00781, \
           0.00781, 0.00781, 0.00781, 0.00781, 0.00781, 0.00781, 0.00781, \
           0.00781, 0.00781, 0.00781, 0.00781, 0.00781, 0.00781, 0.00781, \
           0.00781, 0.00781, 0.00781, 0.00781, 0.00781, 0.00781, 0.00781, \
           0.00781, 0.00781, 0.00781, 0.00781, 0.00781, 0.00781, 0.00781, \
           0.00781, 0.00781, 0.00781, 0.00781, 0.00781, 0.00781, 0.00781, \
           0.00781, 0.00781, 0.00781, 0.00781, 0.00781, 0.00781, 0.00781, \
           0.00781, 0.00781, 0.00781, 0.00781, 0.00781, 0.00781, 0.00781, \
           0.00781, 0.00781, 0.00781, 0.00781, 0.00781, 0.00781, 0.00781, \
           0.00781, 0.00781, 0.00781, 0.00781, 0.00781, 0.00781, 0.00781, \
           0.00781, 0.00781, 0.00781, 0.00781, 0.00781, 0.00781, 0.00781, \
           0.00781, 0.00781, 0.00781, 0.00781, 0.00781, 0.00781, 0.00781, \
           0.00781, 0.00781, 0.00781, 0.00781, 0.00781, 0.00781, 0.00781, \
           0.00781, 0.00781, 0.00781, 0.00781, 0.00781, 0.00781, 0.00781, \
           0.00781, 0.00781, 0.00781, 0.00781, 0.00781, 0.00781, 0.00781, \
           0.00781, 0.00781, 0.00781, 0.00781, 0.00781
       END
     END
     RUN DEFINITION:
       Solver Input File = \
         \\10.10.13.6\C\Resources\directory\62cf9c42b5fa44c999b0d9cc664765b4.H\
         SR.AzureEE.HpcWorkerRole.jobdata\job-4\pipe01.def
       Run Mode = Full
     END
     SOLVER STEP CONTROL:
       PARALLEL ENVIRONMENT:
         Start Method = MSMPI2
         Number of Processes = 128
         Parallel Host List = rd000d3a2134c9*128
       END
     END
   END
 END
 

 +--------------------------------------------------------------------+
 |                                                                    |
 |                            Partitioning                            |
 |                                                                    |
 +--------------------------------------------------------------------+




 +--------------------------------------------------------------------+
 |                                                                    |
 |                 ANSYS(R) CFX(R) Partitioner 15.0.7                 |
 |                                                                    |
 | Version 2014.04.10-23.00-131675     Thu Apr 10 23:23:37 GMTDT 2014 |
 |                                                                    |
 |                        Executable Attributes                       |
 |                                                                    |
 |          single-64bit-int32-supfort-optimised-noprof-lcomp         |
 |                                                                    |
 | (C) 2014 ANSYS, Inc.                                               |
 |                                                                    |
 | All rights reserved. Unauthorized use, distribution or duplication |
 | is prohibited. This product is subject to U.S. laws governing      |
 | export and re-export. For full Legal Notice, see documentation.    |
 +--------------------------------------------------------------------+




 +--------------------------------------------------------------------+
 |                  Job Information at Start of Run                   |
 +--------------------------------------------------------------------+

 Run mode:       partitioning run

 +------------------------------+------+--------+----------+----------+
 | Host                         | Mesh |  PID   |     Job Started     |
 |                              | Part |        | DD/MM/YY | hh:mm:ss |
 +------------------------------+------+--------+----------+----------+
 | RD000D3A2134C9               |    1 |   3852 | 26/05/15 | 17:42:18 |
 +------------------------------+------+--------+----------+----------+


 +--------------------------------------------------------------------+
 |        Memory Allocated for Run  (Actual usage may be less)        |
 +--------------------------------------------------------------------+

           | Real       | Integer    | Character | Logical  | Double
 ----------+------------+------------+-----------+----------+----------
 Mwords    |       1.05 |       1.55 |      3.26 |     0.12 |     0.07
 Mbytes    |       4.00 |       5.91 |      3.11 |     0.46 |     0.52
 ----------+------------+------------+-----------+----------+----------


 +--------------------------------------------------------------------+
 |                  Host Memory Information (Mbytes)                  |
 +--------------------------------------------------------------------+
 |          Host           |     System     |   Allocated    |   %    |
 +-------------------------+----------------+----------------+--------+
 | RD000D3A2134C9          |     57343.55   |        14.00   |   0.02 |
 +-------------------------+----------------+----------------+--------+

 +--------------------------------------------------------------------+
 |                          Mesh Statistics                           |
 +--------------------------------------------------------------------+

 Domain Name : Default Domain

     Total Number of Nodes                                =        8478

     Total Number of Elements                             =        5634
         Total Number of Hexahedrons                      =        5634

     Total Number of Faces                                =        5044

 +--------------------------------------------------------------------+
 |                     Vertex Based Partitioning                      |
 +--------------------------------------------------------------------+

 Partitioning of domain: Default Domain

 - Partitioning tool:       MeTiS multilevel k-way algorithm
 - Number of partitions:           128
 - Number of graph-nodes:         8478
 - Number of graph-edges:        44534

 +--------------------------------------------------------------------+
 |                      Partitioning Information                      |
 +--------------------------------------------------------------------+

 Partitioning information for domain: Default Domain

        +------------------+------------------------+-----------------+
        |     Elements     |        Vertices        |     Faces       |
 +------+------------------+------------------------+-----------------+
 | Part |   Number     %   |   Number     %   %Ovlp |  Number     %   |
 +------+------------------+------------------------+-----------------+
 | Full |      5634        |      8478              |     5044        |
 +------+------------------+------------------------+-----------------+
 |    1 |        65    0.7 |       126    0.7  49.2 |       50    0.7 |
 |    2 |        69    0.8 |       139    0.8  51.1 |       57    0.8 |
 |    3 |        70    0.8 |       136    0.8  50.0 |       53    0.8 |
 |    4 |        67    0.8 |       140    0.8  54.3 |       56    0.8 |
 |    5 |        70    0.8 |       145    0.8  55.9 |       56    0.8 |
 |    6 |        68    0.8 |       143    0.8  55.2 |       58    0.8 |
 |    7 |        70    0.8 |       144    0.8  54.2 |       56    0.8 |
 |    8 |        73    0.8 |       140    0.8  54.3 |       49    0.7 |
 |    9 |        66    0.7 |       140    0.8  53.6 |       57    0.8 |
 |   10 |        53    0.6 |       111    0.6  38.7 |       60    0.8 |
 |   11 |        66    0.7 |       141    0.8  51.8 |       65    0.9 |
 |   12 |        77    0.9 |       148    0.8  54.1 |       50    0.7 |
 |   13 |        74    0.8 |       137    0.8  50.4 |       44    0.6 |
 |   14 |        66    0.7 |       138    0.8  50.7 |       65    0.9 |
 |   15 |        70    0.8 |       139    0.8  54.0 |       53    0.8 |
 |   16 |        65    0.7 |       134    0.8  50.0 |       58    0.8 |
 |   17 |        70    0.8 |       143    0.8  53.8 |       56    0.8 |
 |   18 |        66    0.7 |       136    0.8  51.5 |       58    0.8 |
 |   19 |        74    0.8 |       141    0.8  54.6 |       42    0.6 |
 |   20 |        66    0.7 |       141    0.8  51.8 |       65    0.9 |
 |   21 |        82    0.9 |       157    0.9  57.3 |       44    0.6 |
 |   22 |        64    0.7 |       136    0.8  52.9 |       62    0.9 |
 |   23 |        69    0.8 |       127    0.7  49.6 |       41    0.6 |
 |   24 |        64    0.7 |       135    0.8  51.1 |       62    0.9 |
 |   25 |        72    0.8 |       140    0.8  52.1 |       53    0.8 |
 |   26 |        67    0.8 |       138    0.8  52.2 |       59    0.8 |
 |   27 |        65    0.7 |       135    0.8  52.6 |       56    0.8 |
 |   28 |        71    0.8 |       141    0.8  52.5 |       54    0.8 |
 |   29 |        67    0.8 |       143    0.8  52.4 |       66    0.9 |
 |   30 |        76    0.9 |       143    0.8  52.4 |       44    0.6 |
 |   31 |        67    0.8 |       141    0.8  52.5 |       60    0.8 |
 |   32 |        70    0.8 |       139    0.8  51.1 |       56    0.8 |
 |   33 |        66    0.7 |       143    0.8  52.4 |       66    0.9 |
 |   34 |        72    0.8 |       136    0.8  52.2 |       48    0.7 |
 |   35 |        69    0.8 |       130    0.7  47.7 |       52    0.7 |
 |   36 |        65    0.7 |       143    0.8  53.8 |       63    0.9 |
 |   37 |        66    0.7 |       128    0.7  49.2 |       52    0.7 |
 |   38 |        68    0.8 |       135    0.8  52.6 |       56    0.8 |
 |   39 |        69    0.8 |       138    0.8  52.2 |       54    0.8 |
 |   40 |        67    0.8 |       137    0.8  50.4 |       58    0.8 |
 |   41 |        65    0.7 |       135    0.8  52.6 |       56    0.8 |
 |   42 |        70    0.8 |       144    0.8  53.5 |       59    0.8 |
 |   43 |        70    0.8 |       137    0.8  50.4 |       55    0.8 |
 |   44 |        77    0.9 |       152    0.9  55.3 |       58    0.8 |
 |   45 |        65    0.7 |       126    0.7  49.2 |       50    0.7 |
 |   46 |        67    0.8 |       141    0.8  52.5 |       60    0.8 |
 |   47 |        70    0.8 |       128    0.7  48.4 |       42    0.6 |
 |   48 |        66    0.7 |       141    0.8  54.6 |       58    0.8 |
 |   49 |        65    0.7 |       135    0.8  50.4 |       59    0.8 |
 |   50 |        73    0.8 |       142    0.8  52.1 |       52    0.7 |
 |   51 |        72    0.8 |       135    0.8  51.9 |       46    0.7 |
 |   52 |        66    0.7 |       143    0.8  52.4 |       67    0.9 |
 |   53 |        70    0.8 |       136    0.8  50.0 |       54    0.8 |
 |   54 |        69    0.8 |       141    0.8  53.2 |       57    0.8 |
 |   55 |        72    0.8 |       141    0.8  51.8 |       54    0.8 |
 |   56 |        72    0.8 |       153    0.9  58.2 |       58    0.8 |
 |   57 |        75    0.8 |       147    0.8  53.7 |       53    0.8 |
 |   58 |        65    0.7 |       135    0.8  51.9 |       57    0.8 |
 |   59 |        67    0.8 |       128    0.7  49.2 |       51    0.7 |
 |   60 |        67    0.8 |       137    0.8  53.3 |       58    0.8 |
 |   61 |        78    0.9 |       156    0.9  56.4 |       61    0.9 |
 |   62 |        72    0.8 |       140    0.8  51.4 |       52    0.7 |
 |   63 |        68    0.8 |       134    0.8  51.5 |       53    0.8 |
 |   64 |        70    0.8 |       153    0.9  58.2 |       63    0.9 |
 |   65 |        75    0.8 |       154    0.9  58.4 |       60    0.8 |
 |   66 |        74    0.8 |       147    0.8  53.7 |       56    0.8 |
 |   67 |        71    0.8 |       144    0.8  52.8 |       58    0.8 |
 |   68 |        70    0.8 |       137    0.8  50.4 |       56    0.8 |
 |   69 |        80    0.9 |       155    0.9  56.8 |       44    0.6 |
 |   70 |        66    0.7 |       141    0.8  51.8 |       66    0.9 |
 |   71 |        70    0.8 |       138    0.8  51.4 |       56    0.8 |
 |   72 |        69    0.8 |       135    0.8  51.9 |       50    0.7 |
 |   73 |        68    0.8 |       135    0.8  51.1 |       54    0.8 |
 |   74 |        66    0.7 |       136    0.8  52.2 |       56    0.8 |
 |   75 |        74    0.8 |       150    0.8  57.3 |       53    0.8 |
 |   76 |        67    0.8 |       133    0.7  51.9 |       54    0.8 |
 |   77 |        67    0.8 |       132    0.7  49.2 |       56    0.8 |
 |   78 |        69    0.8 |       143    0.8  52.4 |       60    0.8 |
 |   79 |        64    0.7 |       132    0.7  52.3 |       54    0.8 |
 |   80 |        70    0.8 |       136    0.8  50.0 |       53    0.8 |
 |   81 |        73    0.8 |       142    0.8  52.1 |       54    0.8 |
 |   82 |        69    0.8 |       136    0.8  50.0 |       56    0.8 |
 |   83 |        61    0.7 |       126    0.7  46.0 |       58    0.8 |
 |   84 |        52    0.6 |       105    0.6  39.0 |       53    0.8 |
 |   85 |        71    0.8 |       147    0.8  53.7 |       59    0.8 |
 |   86 |        72    0.8 |       143    0.8  55.2 |       51    0.7 |
 |   87 |        67    0.8 |       137    0.8  50.4 |       58    0.8 |
 |   88 |        67    0.8 |       132    0.7  51.5 |       52    0.7 |
 |   89 |        65    0.7 |       130    0.7  50.8 |       53    0.8 |
 |   90 |        72    0.8 |       145    0.8  53.8 |       54    0.8 |
 |   91 |        66    0.7 |       132    0.7  49.2 |       56    0.8 |
 |   92 |        69    0.8 |       141    0.8  54.6 |       53    0.8 |
 |   93 |        71    0.8 |       135    0.8  50.4 |       50    0.7 |
 |   94 |        66    0.7 |       144    0.8  53.5 |       63    0.9 |
 |   95 |        77    0.9 |       145    0.8  55.9 |       43    0.6 |
 |   96 |        64    0.7 |       138    0.8  53.6 |       59    0.8 |
 |   97 |        70    0.8 |       141    0.8  51.8 |       56    0.8 |
 |   98 |        66    0.7 |       136    0.8  52.2 |       56    0.8 |
 |   99 |        78    0.9 |       148    0.8  56.8 |       41    0.6 |
 |  100 |        65    0.7 |       139    0.8  51.8 |       64    0.9 |
 |  101 |        72    0.8 |       142    0.8  52.8 |       54    0.8 |
 |  102 |        71    0.8 |       144    0.8  52.8 |       58    0.8 |
 |  103 |        66    0.7 |       140    0.8  52.9 |       60    0.8 |
 |  104 |        65    0.7 |       126    0.7  49.2 |       50    0.7 |
 |  105 |        66    0.7 |       141    0.8  51.8 |       65    0.9 |
 |  106 |        69    0.8 |       127    0.7  49.6 |       41    0.6 |
 |  107 |        69    0.8 |       137    0.8  52.6 |       55    0.8 |
 |  108 |        69    0.8 |       145    0.8  55.2 |       57    0.8 |
 |  109 |        73    0.8 |       158    0.9  57.0 |       64    0.9 |
 |  110 |        80    0.9 |       153    0.9  55.6 |       47    0.7 |
 |  111 |        69    0.8 |       135    0.8  49.6 |       55    0.8 |
 |  112 |        70    0.8 |       147    0.8  53.7 |       61    0.9 |
 |  113 |        70    0.8 |       128    0.7  48.4 |       42    0.6 |
 |  114 |        62    0.7 |       132    0.7  50.0 |       63    0.9 |
 |  115 |        72    0.8 |       150    0.8  54.7 |       61    0.9 |
 |  116 |        80    0.9 |       165    0.9  61.2 |       50    0.7 |
 |  117 |        72    0.8 |       139    0.8  51.8 |       52    0.7 |
 |  118 |        65    0.7 |       134    0.8  50.7 |       57    0.8 |
 |  119 |        67    0.8 |       133    0.7  50.4 |       54    0.8 |
 |  120 |        71    0.8 |       143    0.8  52.4 |       57    0.8 |
 |  121 |        78    0.9 |       148    0.8  54.1 |       46    0.7 |
 |  122 |        73    0.8 |       156    0.9  57.7 |       61    0.9 |
 |  123 |        69    0.8 |       131    0.7  48.9 |       51    0.7 |
 |  124 |        68    0.8 |       151    0.8  57.6 |       62    0.9 |
 |  125 |        69    0.8 |       136    0.8  50.0 |       55    0.8 |
 |  126 |        69    0.8 |       140    0.8  51.4 |       57    0.8 |
 |  127 |        69    0.8 |       136    0.8  51.5 |       52    0.7 |
 |  128 |        71    0.8 |       150    0.8  57.3 |       57    0.8 |
 +------+------------------+------------------------+-----------------+
 | Min  |        52    0.6 |       105    0.6  39.0 |       41    0.6 |
 |(part)|           (   84)|           (   84    84)|          (   23)|
 +------+------------------+------------------------+-----------------+
 | Max  |        82    0.9 |       165    0.9  61.2 |       67    0.9 |
 |(part)|           (   21)|           (  116   116)|          (   52)|
 +------+------------------+------------------------+-----------------+
 | Ave  |        69    0.8 |       139    0.8  52.5 |       55    0.8 |
 +------+------------------+------------------------+-----------------+
 | Sum  |      8857  100.0 |     17844  100.0  52.5 |     7066  100.0 |
 +------+------------------+------------------------+-----------------+

 +--------------------------------------------------------------------+
 |                 Partitioning CPU-Time Requirements                 |
 +--------------------------------------------------------------------+
  
 - Preparations                                       6.300E-02 seconds
 - Low-level mesh partitioning                        6.200E-02 seconds
 - Global partitioning information                    0.000E+00 seconds
 - Element and face partitioning information          0.000E+00 seconds
 - Vertex partitioning information                    0.000E+00 seconds
 - Partitioning information compression               1.500E-02 seconds
 - Summed CPU-time for mesh partitioning              2.210E-01 seconds

 +--------------------------------------------------------------------+
 |                   Job Information at End of Run                    |
 +--------------------------------------------------------------------+

 +---------------------------+------+----------+----------+-----------+
 | Host                      | Mesh |     Job Finished    |    CPU    |
 |                           | Part | DD/MM/YY | hh:mm:ss |  seconds  |
 +---------------------------+------+----------+----------+-----------+
 | RD000D3A2134C9            |    1 | 26/05/15 | 17:42:22 | 5.724E+00 |
 +---------------------------+------+----------+----------+-----------+

 Total wall clock time: 4.571E+00 seconds
             or: (          0:         0:         0:     4.571 )
                 (       Days:     Hours:   Minutes:   Seconds )


 +--------------------------------------------------------------------+
 |                                                                    |
 |                               Solver                               |
 |                                                                    |
 +--------------------------------------------------------------------+




 +--------------------------------------------------------------------+
 |                                                                    |
 |                    ANSYS(R) CFX(R) Solver 15.0.7                   |
 |                                                                    |
 | Version 2014.04.10-23.00-131675     Thu Apr 10 23:23:23 GMTDT 2014 |
 |                                                                    |
 |                        Executable Attributes                       |
 |                                                                    |
 |          single-64bit-int32-supfort-optimised-noprof-lcomp         |
 |                                                                    |
 | (C) 2014 ANSYS, Inc.                                               |
 |                                                                    |
 | All rights reserved. Unauthorized use, distribution or duplication |
 | is prohibited. This product is subject to U.S. laws governing      |
 | export and re-export. For full Legal Notice, see documentation.    |
 +--------------------------------------------------------------------+




 +--------------------------------------------------------------------+
 |                  Job Information at Start of Run                   |
 +--------------------------------------------------------------------+

 Run mode:       parallel run (MS MPI)

 +------------------------------+------+--------+----------+----------+
 | Host                         | Mesh |  PID   |     Job Started     |
 |                              | Part |        | DD/MM/YY | hh:mm:ss |
 +------------------------------+------+--------+----------+----------+
 | RD000D3A2134C9               |    1 |   3864 | 26/05/15 | 17:43:22 |
 |                              |    2 |    988 | 26/05/15 | 17:43:22 |
 |                              |    3 |   2520 | 26/05/15 | 17:43:22 |
 |                              |    4 |   2504 | 26/05/15 | 17:43:22 |
 |                              |    5 |   4068 | 26/05/15 | 17:43:22 |
 |                              |    6 |   3168 | 26/05/15 | 17:43:22 |
 |                              |    7 |   1964 | 26/05/15 | 17:43:22 |
 |                              |    8 |   3944 | 26/05/15 | 17:43:22 |
 +------------------------------+------+--------+----------+----------+
 | RD000D3A2136B2               |    9 |   2056 | 26/05/15 | 17:43:22 |
 |                              |   10 |   2024 | 26/05/15 | 17:43:22 |
 |                              |   11 |   2768 | 26/05/15 | 17:43:22 |
 |                              |   12 |   2716 | 26/05/15 | 17:43:22 |
 |                              |   13 |   3992 | 26/05/15 | 17:43:22 |
 |                              |   14 |   2480 | 26/05/15 | 17:43:22 |
 |                              |   15 |   1012 | 26/05/15 | 17:43:22 |
 |                              |   16 |   4092 | 26/05/15 | 17:43:22 |
 +------------------------------+------+--------+----------+----------+
 | RD000D3A213D40               |   17 |   2492 | 26/05/15 | 17:43:22 |
 |                              |   18 |   1728 | 26/05/15 | 17:43:22 |
 |                              |   19 |   3732 | 26/05/15 | 17:43:22 |
 |                              |   20 |   2036 | 26/05/15 | 17:43:22 |
 |                              |   21 |   3336 | 26/05/15 | 17:43:22 |
 |                              |   22 |   1496 | 26/05/15 | 17:43:22 |
 |                              |   23 |   4088 | 26/05/15 | 17:43:22 |
 |                              |   24 |   3084 | 26/05/15 | 17:43:22 |
 +------------------------------+------+--------+----------+----------+
 | RD000D3A213147               |   25 |   2404 | 26/05/15 | 17:43:22 |
 |                              |   26 |   3288 | 26/05/15 | 17:43:22 |
 |                              |   27 |   3160 | 26/05/15 | 17:43:22 |
 |                              |   28 |   2216 | 26/05/15 | 17:43:22 |
 |                              |   29 |    708 | 26/05/15 | 17:43:22 |
 |                              |   30 |   2240 | 26/05/15 | 17:43:22 |
 |                              |   31 |   3220 | 26/05/15 | 17:43:22 |
 |                              |   32 |   3484 | 26/05/15 | 17:43:22 |
 +------------------------------+------+--------+----------+----------+
 | RD000D3A2134FE               |   33 |   1964 | 26/05/15 | 17:43:22 |
 |                              |   34 |   2848 | 26/05/15 | 17:43:22 |
 |                              |   35 |   3668 | 26/05/15 | 17:43:22 |
 |                              |   36 |   3840 | 26/05/15 | 17:43:22 |
 |                              |   37 |   3136 | 26/05/15 | 17:43:22 |
 |                              |   38 |   3992 | 26/05/15 | 17:43:22 |
 |                              |   39 |   3112 | 26/05/15 | 17:43:22 |
 |                              |   40 |   2528 | 26/05/15 | 17:43:22 |
 +------------------------------+------+--------+----------+----------+
 | RD000D3A213E29               |   41 |   3968 | 26/05/15 | 17:43:22 |
 |                              |   42 |   3556 | 26/05/15 | 17:43:22 |
 |                              |   43 |    772 | 26/05/15 | 17:43:22 |
 |                              |   44 |   3800 | 26/05/15 | 17:43:22 |
 |                              |   45 |   3544 | 26/05/15 | 17:43:22 |
 |                              |   46 |   3772 | 26/05/15 | 17:43:22 |
 |                              |   47 |   2836 | 26/05/15 | 17:43:22 |
 |                              |   48 |   3356 | 26/05/15 | 17:43:22 |
 +------------------------------+------+--------+----------+----------+
 | RD000D3A213C7D               |   49 |   3556 | 26/05/15 | 17:43:22 |
 |                              |   50 |   2776 | 26/05/15 | 17:43:22 |
 |                              |   51 |   2028 | 26/05/15 | 17:43:22 |
 |                              |   52 |   3044 | 26/05/15 | 17:43:22 |
 |                              |   53 |   3824 | 26/05/15 | 17:43:22 |
 |                              |   54 |    404 | 26/05/15 | 17:43:22 |
 |                              |   55 |   3360 | 26/05/15 | 17:43:22 |
 |                              |   56 |   3132 | 26/05/15 | 17:43:22 |
 +------------------------------+------+--------+----------+----------+
 | RD000D3A213245               |   57 |   3260 | 26/05/15 | 17:43:22 |
 |                              |   58 |   1956 | 26/05/15 | 17:43:22 |
 |                              |   59 |   3976 | 26/05/15 | 17:43:22 |
 |                              |   60 |   3020 | 26/05/15 | 17:43:22 |
 |                              |   61 |   1656 | 26/05/15 | 17:43:22 |
 |                              |   62 |   3892 | 26/05/15 | 17:43:22 |
 |                              |   63 |   3732 | 26/05/15 | 17:43:22 |
 |                              |   64 |   2936 | 26/05/15 | 17:43:22 |
 +------------------------------+------+--------+----------+----------+
 | RD000D3A213B14               |   65 |   3968 | 26/05/15 | 17:43:22 |
 |                              |   66 |   3616 | 26/05/15 | 17:43:22 |
 |                              |   67 |   1228 | 26/05/15 | 17:43:22 |
 |                              |   68 |   2832 | 26/05/15 | 17:43:22 |
 |                              |   69 |   2904 | 26/05/15 | 17:43:22 |
 |                              |   70 |   2744 | 26/05/15 | 17:43:22 |
 |                              |   71 |   2528 | 26/05/15 | 17:43:22 |
 |                              |   72 |   4076 | 26/05/15 | 17:43:22 |
 +------------------------------+------+--------+----------+----------+
 | RD000D3A213B53               |   73 |   1704 | 26/05/15 | 17:43:22 |
 |                              |   74 |   3908 | 26/05/15 | 17:43:22 |
 |                              |   75 |   2044 | 26/05/15 | 17:43:22 |
 |                              |   76 |   3888 | 26/05/15 | 17:43:22 |
 |                              |   77 |   3244 | 26/05/15 | 17:43:22 |
 |                              |   78 |   3628 | 26/05/15 | 17:43:22 |
 |                              |   79 |   2952 | 26/05/15 | 17:43:22 |
 |                              |   80 |   2372 | 26/05/15 | 17:43:22 |
 +------------------------------+------+--------+----------+----------+
 | RD000D3A213EF9               |   81 |   3244 | 26/05/15 | 17:43:22 |
 |                              |   82 |   1228 | 26/05/15 | 17:43:22 |
 |                              |   83 |   2684 | 26/05/15 | 17:43:22 |
 |                              |   84 |   1176 | 26/05/15 | 17:43:22 |
 |                              |   85 |   3676 | 26/05/15 | 17:43:22 |
 |                              |   86 |   2072 | 26/05/15 | 17:43:22 |
 |                              |   87 |   1172 | 26/05/15 | 17:43:22 |
 |                              |   88 |   2460 | 26/05/15 | 17:43:22 |
 +------------------------------+------+--------+----------+----------+
 | RD000D3A213B10               |   89 |   2488 | 26/05/15 | 17:43:22 |
 |                              |   90 |   3056 | 26/05/15 | 17:43:22 |
 |                              |   91 |   2516 | 26/05/15 | 17:43:22 |
 |                              |   92 |   1384 | 26/05/15 | 17:43:22 |
 |                              |   93 |   3168 | 26/05/15 | 17:43:22 |
 |                              |   94 |   3116 | 26/05/15 | 17:43:22 |
 |                              |   95 |   3688 | 26/05/15 | 17:43:22 |
 |                              |   96 |   3752 | 26/05/15 | 17:43:22 |
 +------------------------------+------+--------+----------+----------+
 | RD000D3A2134D3               |   97 |   3844 | 26/05/15 | 17:43:21 |
 |                              |   98 |   3216 | 26/05/15 | 17:43:21 |
 |                              |   99 |   3936 | 26/05/15 | 17:43:21 |
 |                              |  100 |   2964 | 26/05/15 | 17:43:21 |
 |                              |  101 |   3816 | 26/05/15 | 17:43:21 |
 |                              |  102 |   2108 | 26/05/15 | 17:43:21 |
 |                              |  103 |   2548 | 26/05/15 | 17:43:21 |
 |                              |  104 |   2116 | 26/05/15 | 17:43:21 |
 +------------------------------+------+--------+----------+----------+
 | RD000D3A21303B               |  105 |   1040 | 26/05/15 | 17:43:22 |
 |                              |  106 |   1888 | 26/05/15 | 17:43:22 |
 |                              |  107 |   2688 | 26/05/15 | 17:43:22 |
 |                              |  108 |    940 | 26/05/15 | 17:43:22 |
 |                              |  109 |   3960 | 26/05/15 | 17:43:22 |
 |                              |  110 |   2608 | 26/05/15 | 17:43:22 |
 |                              |  111 |   3600 | 26/05/15 | 17:43:22 |
 |                              |  112 |   2444 | 26/05/15 | 17:43:22 |
 +------------------------------+------+--------+----------+----------+
 | RD000D3A2136B6               |  113 |   3924 | 26/05/15 | 17:43:22 |
 |                              |  114 |   2300 | 26/05/15 | 17:43:22 |
 |                              |  115 |   3932 | 26/05/15 | 17:43:22 |
 |                              |  116 |   2772 | 26/05/15 | 17:43:22 |
 |                              |  117 |   3912 | 26/05/15 | 17:43:22 |
 |                              |  118 |   3776 | 26/05/15 | 17:43:22 |
 |                              |  119 |   3948 | 26/05/15 | 17:43:22 |
 |                              |  120 |   2076 | 26/05/15 | 17:43:22 |
 +------------------------------+------+--------+----------+----------+
 | RD000D3A213A6C               |  121 |   2468 | 26/05/15 | 17:43:22 |
 |                              |  122 |   1020 | 26/05/15 | 17:43:22 |
 |                              |  123 |   3820 | 26/05/15 | 17:43:22 |
 |                              |  124 |   3100 | 26/05/15 | 17:43:22 |
 |                              |  125 |   4040 | 26/05/15 | 17:43:22 |
 |                              |  126 |   3964 | 26/05/15 | 17:43:22 |
 |                              |  127 |   1404 | 26/05/15 | 17:43:22 |
 |                              |  128 |    548 | 26/05/15 | 17:43:22 |
 +------------------------------+------+--------+----------+----------+

 +--------------------------------------------------------------------+
 |                        License Information                         |
 +--------------------------------------------------------------------+
 
 License Cap:    ANSYS CFX Solver (Max 128K Nodes)
 License Cap:     Parallel
 License ID:     hsrAnsysLS-SYSTEM-320-048982


 +--------------------------------------------------------------------+
 |        Memory Allocated for Run  (Actual usage may be less)        |
 +--------------------------------------------------------------------+

 Allocated storage in:    Mwords
                          Mbytes

 Partition | Real       | Integer    | Character | Logical  | Double
 ----------+------------+------------+-----------+----------+----------
   Minimum |       1.41 |       1.67 |      3.71 |     0.12 |     0.08
  (    84) |       5.38 |       6.35 |      3.54 |     0.11 |     0.58
 ----------+------------+------------+-----------+----------+----------
   Maximum |       2.06 |       1.75 |      3.71 |     0.12 |     0.08
  (     1) |       7.86 |       6.67 |      3.54 |     0.11 |     0.58
 ----------+------------+------------+-----------+----------+----------
   Average |       1.52 |       1.67 |      3.71 |     0.12 |     0.08
           |       5.81 |       6.36 |      3.54 |     0.11 |     0.58
 ----------+------------+------------+-----------+----------+----------
     Total |     195.01 |     213.43 |    474.75 |    15.36 |     9.68
           |     743.92 |     814.17 |    452.76 |    14.65 |    73.84
 ----------+------------+------------+-----------+----------+----------


 +--------------------------------------------------------------------+
 |                  Host Memory Information (Mbytes)                  |
 +--------------------------------------------------------------------+
 |           Host         | Npart |   System    |  Allocated  |   %   |
 +------------------------+-------+-------------+-------------+-------+
 | RD000D3A2134C9         |    8  |    57343.55 |      133.49 |  0.23 |
 +------------------------+-------+-------------+-------------+-------+
 | RD000D3A2136B2         |    8  |    57343.55 |      130.66 |  0.23 |
 +------------------------+-------+-------------+-------------+-------+
 | RD000D3A213D40         |    8  |    57343.55 |      131.08 |  0.23 |
 +------------------------+-------+-------------+-------------+-------+
 | RD000D3A213147         |    8  |    57343.55 |      131.09 |  0.23 |
 +------------------------+-------+-------------+-------------+-------+
 | RD000D3A2134FE         |    8  |    57343.55 |      130.78 |  0.23 |
 +------------------------+-------+-------------+-------------+-------+
 | RD000D3A213E29         |    8  |    57343.55 |      130.96 |  0.23 |
 +------------------------+-------+-------------+-------------+-------+
 | RD000D3A213C7D         |    8  |    57343.55 |      131.19 |  0.23 |
 +------------------------+-------+-------------+-------------+-------+
 | RD000D3A213245         |    8  |    57343.55 |      131.26 |  0.23 |
 +------------------------+-------+-------------+-------------+-------+
 | RD000D3A213B14         |    8  |    57343.55 |      131.57 |  0.23 |
 +------------------------+-------+-------------+-------------+-------+
 | RD000D3A213B53         |    8  |    57343.55 |      130.84 |  0.23 |
 +------------------------+-------+-------------+-------------+-------+
 | RD000D3A213EF9         |    8  |    57343.55 |      130.53 |  0.23 |
 +------------------------+-------+-------------+-------------+-------+
 | RD000D3A213B10         |    8  |    57343.55 |      130.96 |  0.23 |
 +------------------------+-------+-------------+-------------+-------+
 | RD000D3A2134D3         |    8  |    57343.55 |      131.04 |  0.23 |
 +------------------------+-------+-------------+-------------+-------+
 | RD000D3A21303B         |    8  |    57343.55 |      131.33 |  0.23 |
 +------------------------+-------+-------------+-------------+-------+
 | RD000D3A2136B6         |    8  |    57343.55 |      131.18 |  0.23 |
 +------------------------+-------+-------------+-------------+-------+
 | RD000D3A213A6C         |    8  |    57343.55 |      131.36 |  0.23 |
 +------------------------+-------+-------------+-------------+-------+
 | Total                  |  128  |   917496.81 |     2099.33 |  0.23 |
 +------------------------+-------+-------------+-------------+-------+

 +--------------------------------------------------------------------+
 |                          Mesh Statistics                           |
 +--------------------------------------------------------------------+
 | Domain Name          | Orthog. Angle | Exp. Factor  | Aspect Ratio |
 +----------------------+---------------+--------------+--------------+
 |                      | Minimum [deg] |   Maximum    |    Maximum   |
 +----------------------+---------------+--------------+--------------+
 | Default Domain       |       69.3 OK |         4 OK |         4 OK |
 +----------------------+---------------+--------------+--------------+
 |                      |  %!  %ok  %OK | %!  %ok  %OK | %!  %ok  %OK |
 +----------------------+---------------+--------------+--------------+
 | Default Domain       |   0    0  100 |  0    0  100 |  0    0  100 |
 +----------------------+---------------+--------------+--------------+

 Domain Name : Default Domain

     Total Number of Nodes                                =        8478

     Total Number of Elements                             =        5634
         Total Number of Hexahedrons                      =        5634

     Total Number of Faces                                =        5044

 +--------------------------------------------------------------------+
 |                     Average Scale Information                      |
 +--------------------------------------------------------------------+

 Domain Name : Default Domain
     Global Length                                         = 8.6454E-02
     Minimum Extent                                        = 1.6000E-02
     Maximum Extent                                        = 8.3800E-01
     Density                                               = 1.1850E+00
     Dynamic Viscosity                                     = 1.8310E-05
     Velocity                                              = 8.1802E-03
     Advection Time                                        = 1.0569E+01
     Reynolds Number                                       = 4.5770E+01
 
 +--------------------------------------------------------------------+
 | ERROR #002100004 has occurred in subroutine Out_Scales_Flu.        |
 | Message:                                                           |
 | The Reynolds number is outside of the range expected based on the  |
 | Option selected for the TURBULENCE MODEL. Check this setting,      |
 | the values of the properties, mesh scale, consistency of units     |
 | and solution values in the input file. Execution will proceed.     |
 +--------------------------------------------------------------------+

 +--------------------------------------------------------------------+
 |                Checking for Isolated Fluid Regions                 |
 +--------------------------------------------------------------------+
 
 No isolated fluid regions were found.

 +--------------------------------------------------------------------+
 |              The Equations Solved in This Calculation              |
 +--------------------------------------------------------------------+

 Subsystem : Momentum and Mass

   U-Mom
   V-Mom
   W-Mom
   P-Mass

 Subsystem : TurbKE and Diss.K

   K-TurbKE
   E-Diss.K
                   
 CFD Solver started: Tue May 26 17:43:38 2015


 +--------------------------------------------------------------------+
 |                       Convergence History                          |
 +--------------------------------------------------------------------+

 ======================================================================
 |                        Timescale Information                       |
 ----------------------------------------------------------------------
 |       Equation       |         Type          |      Timescale      |
 +----------------------+-----------------------+---------------------+
 | U-Mom                | Auto Timescale        |     2.59362E+00     |
 | V-Mom                | Auto Timescale        |     2.59362E+00     |
 | W-Mom                | Auto Timescale        |     2.59362E+00     |
 +----------------------+-----------------------+---------------------+
 | K-TurbKE             | Auto Timescale        |     2.59362E+00     |
 | E-Diss.K             | Auto Timescale        |     2.59362E+00     |
 +----------------------+-----------------------+---------------------+

 ======================================================================
 OUTER LOOP ITERATION =    1                    CPU SECONDS = 3.069E+03
 ----------------------------------------------------------------------
 |       Equation       | Rate | RMS Res | Max Res |  Linear Solution |
 +----------------------+------+---------+---------+------------------+
 | U-Mom                | 0.00 | 4.8E-04 | 2.1E-03 |       2.3E+00  ok|
 | V-Mom                | 0.00 | 5.0E-04 | 2.1E-03 |       1.5E+00  ok|
 | W-Mom                | 0.00 | 1.4E-05 | 6.0E-05 |       1.7E+01  ok|
 | P-Mass               | 0.00 | 2.1E-02 | 9.0E-02 |  9.0  1.6E-02  OK|
 +----------------------+------+---------+---------+------------------+
 | K-TurbKE             | 0.00 | 2.5E-03 | 5.3E-02 | 10.3  5.7E-02  OK|
 | E-Diss.K             | 0.00 | 8.6E-02 | 1.0E+00 | 11.3  2.1E-02  OK|
 +----------------------+------+---------+---------+------------------+

 ======================================================================
 OUTER LOOP ITERATION =    2                    CPU SECONDS = 3.669E+03
 ----------------------------------------------------------------------
 |       Equation       | Rate | RMS Res | Max Res |  Linear Solution |
 +----------------------+------+---------+---------+------------------+
 | U-Mom                | 8.75 | 4.2E-03 | 3.7E-02 |       1.0E-01  ok|
 | V-Mom                | 8.85 | 4.4E-03 | 3.8E-02 |       9.7E-02  OK|
 | W-Mom                |99.99 | 2.5E-03 | 8.9E-03 |       4.9E-02  OK|
 | P-Mass               | 0.32 | 6.6E-03 | 1.2E-01 |  9.0  7.7E-02  OK|
 +----------------------+------+---------+---------+------------------+
 | K-TurbKE             | 0.19 | 4.9E-04 | 6.9E-03 | 14.8  5.9E-02  OK|
 | E-Diss.K             | 1.06 | 9.1E-02 | 9.7E-01 | 11.4  2.7E-02  OK|
 +----------------------+------+---------+---------+------------------+

 ======================================================================
 OUTER LOOP ITERATION =    3                    CPU SECONDS = 3.686E+03
 ----------------------------------------------------------------------
 |       Equation       | Rate | RMS Res | Max Res |  Linear Solution |
 +----------------------+------+---------+---------+------------------+
 | U-Mom                | 1.15 | 4.8E-03 | 5.2E-02 |       4.9E-02  OK|
 | V-Mom                | 1.08 | 4.7E-03 | 5.2E-02 |       2.3E-02  OK|
 | W-Mom                | 0.80 | 2.0E-03 | 9.0E-03 |       3.6E-02  OK|
 | P-Mass               | 0.36 | 2.4E-03 | 7.1E-02 | 13.1  8.8E-02  OK|
 +----------------------+------+---------+---------+------------------+
 | K-TurbKE             | 1.25 | 6.1E-04 | 7.5E-03 | 10.1  6.6E-02  OK|
 | E-Diss.K             | 0.57 | 5.1E-02 | 4.3E-01 | 11.5  2.0E-02  OK|
 +----------------------+------+---------+---------+------------------+

 ======================================================================
 OUTER LOOP ITERATION =    4                    CPU SECONDS = 3.704E+03
 ----------------------------------------------------------------------
 |       Equation       | Rate | RMS Res | Max Res |  Linear Solution |
 +----------------------+------+---------+---------+------------------+
 | U-Mom                | 0.57 | 2.7E-03 | 3.6E-02 |       1.8E-01  ok|
 | V-Mom                | 0.58 | 2.7E-03 | 3.2E-02 |       2.0E-01  ok|
 | W-Mom                | 0.68 | 1.4E-03 | 9.1E-03 |       6.1E-02  OK|
 | P-Mass               | 2.19 | 5.2E-03 | 8.7E-02 |  5.0  7.1E-02  OK|
 +----------------------+------+---------+---------+------------------+
 | K-TurbKE             | 1.60 | 9.7E-04 | 1.2E-02 | 10.1  3.7E-02  OK|
 | E-Diss.K             | 0.66 | 3.4E-02 | 3.8E-01 | 11.6  1.9E-02  OK|
 +----------------------+------+---------+---------+------------------+

 ======================================================================
 OUTER LOOP ITERATION =    5                    CPU SECONDS = 3.718E+03
 ----------------------------------------------------------------------
 |       Equation       | Rate | RMS Res | Max Res |  Linear Solution |
 +----------------------+------+---------+---------+------------------+
 | U-Mom                | 0.51 | 1.4E-03 | 2.1E-02 |       1.4E-01  ok|
 | V-Mom                | 0.50 | 1.4E-03 | 1.9E-02 |       1.6E-01  ok|
 | W-Mom                | 0.56 | 7.6E-04 | 5.5E-03 |       5.8E-02  OK|
 | P-Mass               | 1.01 | 5.3E-03 | 9.6E-02 |  5.0  6.5E-02  OK|
 +----------------------+------+---------+---------+------------------+
 | K-TurbKE             | 1.20 | 1.2E-03 | 1.8E-02 | 10.1  2.6E-02  OK|
 | E-Diss.K             | 1.41 | 4.8E-02 | 5.0E-01 | 11.6  1.5E-02  OK|
 +----------------------+------+---------+---------+------------------+

 ======================================================================
 |                        Timescale Information                       |
 ----------------------------------------------------------------------
 |       Equation       |         Type          |      Timescale      |
 +----------------------+-----------------------+---------------------+
 | U-Mom                | Auto Timescale        |     2.58422E+00     |
 | V-Mom                | Auto Timescale        |     2.58422E+00     |
 | W-Mom                | Auto Timescale        |     2.58422E+00     |
 +----------------------+-----------------------+---------------------+
 | K-TurbKE             | Auto Timescale        |     2.58422E+00     |
 | E-Diss.K             | Auto Timescale        |     2.58422E+00     |
 +----------------------+-----------------------+---------------------+

 ======================================================================
 OUTER LOOP ITERATION =    6                    CPU SECONDS = 3.732E+03
 ----------------------------------------------------------------------
 |       Equation       | Rate | RMS Res | Max Res |  Linear Solution |
 +----------------------+------+---------+---------+------------------+
 | U-Mom                | 0.49 | 6.8E-04 | 1.3E-02 |       1.5E-01  ok|
 | V-Mom                | 0.48 | 6.6E-04 | 9.9E-03 |       1.7E-01  ok|
 | W-Mom                | 0.45 | 3.5E-04 | 2.7E-03 |       9.7E-02  OK|
 | P-Mass               | 0.63 | 3.4E-03 | 7.3E-02 |  5.0  4.2E-02  OK|
 +----------------------+------+---------+---------+------------------+
 | K-TurbKE             | 0.87 | 1.0E-03 | 1.2E-02 | 10.1  2.2E-02  OK|
 | E-Diss.K             | 1.00 | 4.8E-02 | 4.3E-01 | 11.6  1.4E-02  OK|
 +----------------------+------+---------+---------+------------------+

 ======================================================================
 OUTER LOOP ITERATION =    7                    CPU SECONDS = 3.746E+03
 ----------------------------------------------------------------------
 |       Equation       | Rate | RMS Res | Max Res |  Linear Solution |
 +----------------------+------+---------+---------+------------------+
 | U-Mom                | 0.53 | 3.7E-04 | 7.3E-03 |       1.3E-01  ok|
 | V-Mom                | 0.53 | 3.5E-04 | 5.2E-03 |       1.8E-01  ok|
 | W-Mom                | 0.51 | 1.8E-04 | 1.4E-03 |       9.4E-02  OK|
 | P-Mass               | 0.65 | 2.2E-03 | 4.8E-02 |  5.0  3.6E-02  OK|
 +----------------------+------+---------+---------+------------------+
 | K-TurbKE             | 0.83 | 8.4E-04 | 7.5E-03 | 10.1  2.0E-02  OK|
 | E-Diss.K             | 0.90 | 4.3E-02 | 3.5E-01 | 11.6  1.4E-02  OK|
 +----------------------+------+---------+---------+------------------+

 ======================================================================
 OUTER LOOP ITERATION =    8                    CPU SECONDS = 3.760E+03
 ----------------------------------------------------------------------
 |       Equation       | Rate | RMS Res | Max Res |  Linear Solution |
 +----------------------+------+---------+---------+------------------+
 | U-Mom                | 0.54 | 2.0E-04 | 4.3E-03 |       1.1E-01  ok|
 | V-Mom                | 0.55 | 1.9E-04 | 2.9E-03 |       1.9E-01  ok|
 | W-Mom                | 0.56 | 9.9E-05 | 6.1E-04 |       1.0E-01  ok|
 | P-Mass               | 0.56 | 1.2E-03 | 2.7E-02 |  5.0  3.3E-02  OK|
 +----------------------+------+---------+---------+------------------+
 | K-TurbKE             | 0.84 | 7.1E-04 | 6.5E-03 | 10.1  1.8E-02  OK|
 | E-Diss.K             | 0.88 | 3.8E-02 | 2.8E-01 | 11.6  1.5E-02  OK|
 +----------------------+------+---------+---------+------------------+

 ======================================================================
 OUTER LOOP ITERATION =    9                    CPU SECONDS = 3.777E+03
 ----------------------------------------------------------------------
 |       Equation       | Rate | RMS Res | Max Res |  Linear Solution |
 +----------------------+------+---------+---------+------------------+
 | U-Mom                | 0.60 | 1.2E-04 | 2.4E-03 |       1.0E-01  ok|
 | V-Mom                | 0.63 | 1.2E-04 | 2.2E-03 |       2.3E-01  ok|
 | W-Mom                | 0.65 | 6.5E-05 | 5.9E-04 |       9.3E-02  OK|
 | P-Mass               | 0.53 | 6.4E-04 | 1.3E-02 |  5.0  3.7E-02  OK|
 +----------------------+------+---------+---------+------------------+
 | K-TurbKE             | 0.85 | 6.0E-04 | 5.2E-03 |  5.5  9.6E-02  OK|
 | E-Diss.K             | 0.85 | 3.2E-02 | 2.2E-01 | 11.6  1.6E-02  OK|
 +----------------------+------+---------+---------+------------------+

 ======================================================================
 OUTER LOOP ITERATION =   10                    CPU SECONDS = 3.793E+03
 ----------------------------------------------------------------------
 |       Equation       | Rate | RMS Res | Max Res |  Linear Solution |
 +----------------------+------+---------+---------+------------------+
 | U-Mom                | 0.67 | 8.0E-05 | 1.6E-03 |       1.1E-01  ok|
 | V-Mom                | 0.72 | 8.7E-05 | 1.8E-03 |       2.5E-01  ok|
 | W-Mom                | 0.72 | 4.6E-05 | 5.3E-04 |       9.5E-02  OK|
 | P-Mass               | 0.51 | 3.3E-04 | 5.2E-03 |  5.0  4.8E-02  OK|
 +----------------------+------+---------+---------+------------------+
 | K-TurbKE             | 0.88 | 5.2E-04 | 4.1E-03 |  5.5  9.5E-02  OK|
 | E-Diss.K             | 0.87 | 2.8E-02 | 1.8E-01 | 11.6  1.6E-02  OK|
 +----------------------+------+---------+---------+------------------+

 ======================================================================
 |                        Timescale Information                       |
 ----------------------------------------------------------------------
 |       Equation       |         Type          |      Timescale      |
 +----------------------+-----------------------+---------------------+
 | U-Mom                | Auto Timescale        |     2.59362E+00     |
 | V-Mom                | Auto Timescale        |     2.59362E+00     |
 | W-Mom                | Auto Timescale        |     2.59362E+00     |
 +----------------------+-----------------------+---------------------+
 | K-TurbKE             | Auto Timescale        |     2.59362E+00     |
 | E-Diss.K             | Auto Timescale        |     2.59362E+00     |
 +----------------------+-----------------------+---------------------+

 ======================================================================
 OUTER LOOP ITERATION =   11                    CPU SECONDS = 3.809E+03
 ----------------------------------------------------------------------
 |       Equation       | Rate | RMS Res | Max Res |  Linear Solution |
 +----------------------+------+---------+---------+------------------+
 | U-Mom                | 0.74 | 5.8E-05 | 1.3E-03 |       1.2E-01  ok|
 | V-Mom                | 0.79 | 6.9E-05 | 1.5E-03 |       2.6E-01  ok|
 | W-Mom                | 0.74 | 3.4E-05 | 4.3E-04 |       9.8E-02  OK|
 | P-Mass               | 0.55 | 1.8E-04 | 2.1E-03 |  5.0  6.6E-02  OK|
 +----------------------+------+---------+---------+------------------+
 | K-TurbKE             | 0.89 | 4.7E-04 | 3.2E-03 |  5.5  9.3E-02  OK|
 | E-Diss.K             | 0.90 | 2.6E-02 | 1.5E-01 | 11.6  1.6E-02  OK|
 +----------------------+------+---------+---------+------------------+

 ======================================================================
 OUTER LOOP ITERATION =   12                    CPU SECONDS = 3.822E+03
 ----------------------------------------------------------------------
 |       Equation       | Rate | RMS Res | Max Res |  Linear Solution |
 +----------------------+------+---------+---------+------------------+
 | U-Mom                | 0.78 | 4.5E-05 | 1.0E-03 |       1.3E-01  ok|
 | V-Mom                | 0.83 | 5.8E-05 | 1.3E-03 |       2.7E-01  ok|
 | W-Mom                | 0.74 | 2.5E-05 | 3.3E-04 |       1.1E-01  ok|
 | P-Mass               | 0.59 | 1.1E-04 | 1.4E-03 |  5.0  9.1E-02  OK|
 +----------------------+------+---------+---------+------------------+
 | K-TurbKE             | 0.90 | 4.2E-04 | 2.4E-03 |  5.5  9.1E-02  OK|
 | E-Diss.K             | 0.91 | 2.3E-02 | 1.3E-01 | 11.6  1.6E-02  OK|
 +----------------------+------+---------+---------+------------------+

 ======================================================================
 OUTER LOOP ITERATION =   13                    CPU SECONDS = 3.839E+03
 ----------------------------------------------------------------------
 |       Equation       | Rate | RMS Res | Max Res |  Linear Solution |
 +----------------------+------+---------+---------+------------------+
 | U-Mom                | 0.80 | 3.6E-05 | 8.3E-04 |       6.0E-02  OK|
 | V-Mom                | 0.85 | 4.9E-05 | 1.1E-03 |       1.1E-01  ok|
 | W-Mom                | 0.74 | 1.9E-05 | 2.5E-04 |       3.8E-02  OK|
 | P-Mass               | 0.65 | 6.9E-05 | 1.0E-03 |  9.0  5.9E-02  OK|
 +----------------------+------+---------+---------+------------------+
 | K-TurbKE             | 0.91 | 3.8E-04 | 1.8E-03 |  5.5  8.7E-02  OK|
 | E-Diss.K             | 0.91 | 2.1E-02 | 1.2E-01 | 11.6  1.6E-02  OK|
 +----------------------+------+---------+---------+------------------+
                   
 CFD Solver finished: Tue May 26 17:43:45 2015
 CFD Solver wall clock seconds: 6.4830E+00

 ======================================================================
              Termination and Interrupt Condition Summary
 ======================================================================
    
 CFD Solver: All target criteria reached
   (Equation residuals)

 ======================================================================
              Boundary Flow and Total Source Term Summary
 ======================================================================

 +--------------------------------------------------------------------+
 |                               U-Mom                                |
 +--------------------------------------------------------------------+
 Boundary         : Default Domain Default                 -1.5751E-07
 Boundary         : Inlet                                   1.5923E-07
 Boundary         : Outlet                                 -3.4749E-12
                                                           -----------
 Domain Imbalance :                                         1.7163E-09

 +--------------------------------------------------------------------+
 |                               V-Mom                                |
 +--------------------------------------------------------------------+
 Boundary         : Default Domain Default                 -4.3954E-08
 Boundary         : Inlet                                  -9.3588E-13
 Boundary         : Outlet                                  4.6860E-08
                                                           -----------
 Domain Imbalance :                                         2.9050E-09

 +--------------------------------------------------------------------+
 |                               W-Mom                                |
 +--------------------------------------------------------------------+
 Boundary         : Default Domain Default                 -8.3398E-06
 Boundary         : Inlet                                   8.6876E-12
 Boundary         : Outlet                                 -2.5994E-11
 Boundary         : Symmetry                                8.3395E-06
                                                           -----------
 Domain Imbalance :                                        -2.8194E-10

 +--------------------------------------------------------------------+
 |                               P-Mass                               |
 +--------------------------------------------------------------------+
 Boundary         : Inlet                                   4.6871E-06
 Boundary         : Outlet                                 -4.6867E-06
                                                           -----------
 Domain Imbalance :                                         4.2292E-10


 +--------------------------------------------------------------------+
 |                     Normalised Imbalance Summary                   |
 +--------------------------------------------------------------------+
 |       Equation       |      Maximum Flow     |     Imbalance (%)   |
 +--------------------------------------------------------------------+
 | U-Mom                |       8.3398E-06      |        0.0206       |
 | V-Mom                |       8.3398E-06      |        0.0348       |
 | W-Mom                |       8.3398E-06      |       -0.0034       |
 | P-Mass               |       4.6871E-06      |        0.0090       |
 +----------------------+-----------------------+---------------------+

 ======================================================================
                     Wall Force and Moment Summary
 ======================================================================
                                                                          
 Notes:
 1. Pressure integrals exclude the reference pressure.  To include
    it, set the expert parameter 'include pref in forces = t'.


 +--------------------------------------------------------------------+
 |                      Pressure Force On Walls                       |
 +--------------------------------------------------------------------+
                                    X-Comp.      Y-Comp.      Z-Comp.

 Domain Group: Default Domain

 Default Domain Default           1.3400E-07   1.1371E-07   8.3398E-06
                                  -----------  -----------  -----------
 Domain Group Totals :            1.3400E-07   1.1371E-07   8.3398E-06


 +--------------------------------------------------------------------+
 |                       Viscous Force On Walls                       |
 +--------------------------------------------------------------------+
                                    X-Comp.      Y-Comp.      Z-Comp.

 Domain Group: Default Domain

 Default Domain Default           2.3510E-08  -6.9761E-08  -1.0904E-11
                                  -----------  -----------  -----------
 Domain Group Totals :            2.3510E-08  -6.9761E-08  -1.0904E-11


 +--------------------------------------------------------------------+
 |                      Pressure Moment On Walls                      |
 +--------------------------------------------------------------------+
                                    X-Comp.      Y-Comp.      Z-Comp.

 Domain Group: Default Domain

 Default Domain Default          -3.3789E-07   2.9167E-06   1.5146E-10
                                  -----------  -----------  -----------
 Domain Group Totals :           -3.3789E-07   2.9167E-06   1.5146E-10


 +--------------------------------------------------------------------+
 |                       Viscous Moment On Walls                      |
 +--------------------------------------------------------------------+
                                    X-Comp.      Y-Comp.      Z-Comp.

 Domain Group: Default Domain

 Default Domain Default           7.0300E-10   2.3582E-10  -3.0209E-11
                                  -----------  -----------  -----------
 Domain Group Totals :            7.0300E-10   2.3582E-10  -3.0209E-11


 +--------------------------------------------------------------------+
 |                   Locations of Maximum Residuals                   |
 +--------------------------------------------------------------------+
 |       Equation       |      Domain Name      |     Node Number     |
 +--------------------------------------------------------------------+
 | U-Mom                | Default Domain        |           5193      |
 | V-Mom                | Default Domain        |           5202      |
 | W-Mom                | Default Domain        |           6578      |
 | P-Mass               | Default Domain        |           5194      |
 +----------------------+-----------------------+---------------------+
 | K-TurbKE             | Default Domain        |           5201      |
 | E-Diss.K             | Default Domain        |           6460      |
 +----------------------+-----------------------+---------------------+

 ======================================================================
 |                     False Transient Information                    |
 +--------------------------------------------------------------------+
 |       Equation       |         Type          | Elapsed Pseudo-Time |
 +--------------------------------------------------------------------+
 | U-Mom                | Auto Timescale        |     3.36700E+01     |
 | V-Mom                | Auto Timescale        |     3.36700E+01     |
 | W-Mom                | Auto Timescale        |     3.36700E+01     |
 +----------------------+-----------------------+---------------------+
 | K-TurbKE             | Auto Timescale        |     3.36700E+01     |
 | E-Diss.K             | Auto Timescale        |     3.36700E+01     |
 +----------------------+-----------------------+---------------------+

 +--------------------------------------------------------------------+
 |                     Average Scale Information                      |
 +--------------------------------------------------------------------+

 Domain Name : Default Domain
     Global Length                                         = 8.6454E-02
     Minimum Extent                                        = 1.6000E-02
     Maximum Extent                                        = 8.3800E-01
     Density                                               = 1.1850E+00
     Dynamic Viscosity                                     = 1.8310E-05
     Velocity                                              = 9.9983E-03
     Advection Time                                        = 8.6469E+00
     Reynolds Number                                       = 5.5942E+01
 
 +--------------------------------------------------------------------+
 | ERROR #002100004 has occurred in subroutine Out_Scales_Flu.        |
 | Message:                                                           |
 | The Reynolds number is outside of the range expected based on the  |
 | Option selected for the TURBULENCE MODEL. Check this setting,      |
 | the values of the properties, mesh scale, consistency of units     |
 | and solution values in the input file. Execution will proceed.     |
 +--------------------------------------------------------------------+

 +--------------------------------------------------------------------+
 |                     Variable Range Information                     |
 +--------------------------------------------------------------------+

 Domain Name : Default Domain
 +--------------------------------------------------------------------+
 |      Variable Name                         |    min    |    max    |
 +--------------------------------------------------------------------+
 | Density                                    |  1.18E+00 |  1.18E+00 |
 | Specific Heat Capacity at Constant Pressure|  1.00E+03 |  1.00E+03 |
 | Dynamic Viscosity                          |  1.83E-05 |  1.83E-05 |
 | Thermal Conductivity                       |  2.61E-02 |  2.61E-02 |
 | Static Entropy                             |  0.00E+00 |  0.00E+00 |
 | Velocity u                                 | -1.03E-03 |  1.12E-02 |
 | Velocity v                                 | -1.45E-02 |  2.34E-04 |
 | Velocity w                                 | -2.94E-04 |  2.77E-04 |
 | Pressure                                   | -3.30E-06 |  2.86E-04 |
 | Turbulence Kinetic Energy                  |  3.75E-07 |  2.24E-05 |
 | Turbulence Eddy Dissipation                |  1.22E-10 |  6.58E-07 |
 | Eddy Viscosity                             |  6.31E-05 |  1.23E-04 |
 | Temperature                                |  2.98E+02 |  2.98E+02 |
 +--------------------------------------------------------------------+

 +--------------------------------------------------------------------+
 |           CPU Requirements of Numerical Solution - Total           |
 +--------------------------------------------------------------------+

 Subsystem Name                  Discretization       Linear Solution
                                (secs.   %total)     (secs.   %total) 
 ----------------------------------------------------------------------
 Momentum and Mass              2.52E+02   6.3 %     1.94E+02   4.8 %
 TurbKE and Diss.K              7.19E+01   1.8 %     1.14E+02   2.8 %
                                -------- -------     --------  ------
 Subsystem Summary              3.24E+02   8.1 %     3.08E+02   7.7 %

 Variable Updates               2.17E+02    5.4 %
 File Reading                   1.80E+01    0.4 %
 File Writing                   2.35E+01    0.6 %
 Miscellaneous                  3.13E+03   77.8 %
                                --------
 Total                          4.02E+03

 +--------------------------------------------------------------------+
 |                   Job Information at End of Run                    |
 +--------------------------------------------------------------------+

 +---------------------------+------+----------+----------+-----------+
 | Host                      | Mesh |     Job Finished    |    CPU    |
 |                           | Part | DD/MM/YY | hh:mm:ss |  seconds  |
 +---------------------------+------+----------+----------+-----------+
 | RD000D3A2134C9            |    1 | 26/05/15 | 17:43:46 | 3.833E+01 |
 |                           |    2 | 26/05/15 | 17:43:46 | 3.833E+01 |
 |                           |    3 | 26/05/15 | 17:43:46 | 3.833E+01 |
 |                           |    4 | 26/05/15 | 17:43:46 | 3.833E+01 |
 |                           |    5 | 26/05/15 | 17:43:46 | 3.833E+01 |
 |                           |    6 | 26/05/15 | 17:43:46 | 3.833E+01 |
 |                           |    7 | 26/05/15 | 17:43:46 | 3.833E+01 |
 |                           |    8 | 26/05/15 | 17:43:46 | 3.833E+01 |
 +---------------------------+------+----------+----------+-----------+
 | RD000D3A2136B2            |    9 | 26/05/15 | 17:43:46 | 3.110E+01 |
 |                           |   10 | 26/05/15 | 17:43:46 | 3.110E+01 |
 |                           |   11 | 26/05/15 | 17:43:46 | 3.110E+01 |
 |                           |   12 | 26/05/15 | 17:43:46 | 3.110E+01 |
 |                           |   13 | 26/05/15 | 17:43:46 | 3.110E+01 |
 |                           |   14 | 26/05/15 | 17:43:46 | 3.110E+01 |
 |                           |   15 | 26/05/15 | 17:43:46 | 3.110E+01 |
 |                           |   16 | 26/05/15 | 17:43:46 | 3.110E+01 |
 +---------------------------+------+----------+----------+-----------+
 | RD000D3A213D40            |   17 | 26/05/15 | 17:43:46 | 2.750E+01 |
 |                           |   18 | 26/05/15 | 17:43:46 | 2.750E+01 |
 |                           |   19 | 26/05/15 | 17:43:46 | 2.750E+01 |
 |                           |   20 | 26/05/15 | 17:43:46 | 2.750E+01 |
 |                           |   21 | 26/05/15 | 17:43:46 | 2.750E+01 |
 |                           |   22 | 26/05/15 | 17:43:46 | 2.750E+01 |
 |                           |   23 | 26/05/15 | 17:43:46 | 2.750E+01 |
 |                           |   24 | 26/05/15 | 17:43:46 | 2.750E+01 |
 +---------------------------+------+----------+----------+-----------+
 | RD000D3A213147            |   25 | 26/05/15 | 17:43:46 | 3.032E+01 |
 |                           |   26 | 26/05/15 | 17:43:46 | 3.032E+01 |
 |                           |   27 | 26/05/15 | 17:43:46 | 3.032E+01 |
 |                           |   28 | 26/05/15 | 17:43:46 | 3.032E+01 |
 |                           |   29 | 26/05/15 | 17:43:46 | 3.032E+01 |
 |                           |   30 | 26/05/15 | 17:43:46 | 3.032E+01 |
 |                           |   31 | 26/05/15 | 17:43:46 | 3.032E+01 |
 |                           |   32 | 26/05/15 | 17:43:46 | 3.032E+01 |
 +---------------------------+------+----------+----------+-----------+
 | RD000D3A2134FE            |   33 | 26/05/15 | 17:43:46 | 2.664E+01 |
 |                           |   34 | 26/05/15 | 17:43:46 | 2.664E+01 |
 |                           |   35 | 26/05/15 | 17:43:46 | 2.664E+01 |
 |                           |   36 | 26/05/15 | 17:43:46 | 2.664E+01 |
 |                           |   37 | 26/05/15 | 17:43:46 | 2.664E+01 |
 |                           |   38 | 26/05/15 | 17:43:46 | 2.664E+01 |
 |                           |   39 | 26/05/15 | 17:43:46 | 2.664E+01 |
 |                           |   40 | 26/05/15 | 17:43:46 | 2.664E+01 |
 +---------------------------+------+----------+----------+-----------+
 | RD000D3A213E29            |   41 | 26/05/15 | 17:43:46 | 3.363E+01 |
 |                           |   42 | 26/05/15 | 17:43:46 | 3.363E+01 |
 |                           |   43 | 26/05/15 | 17:43:46 | 3.363E+01 |
 |                           |   44 | 26/05/15 | 17:43:46 | 3.363E+01 |
 |                           |   45 | 26/05/15 | 17:43:46 | 3.363E+01 |
 |                           |   46 | 26/05/15 | 17:43:46 | 3.363E+01 |
 |                           |   47 | 26/05/15 | 17:43:46 | 3.363E+01 |
 |                           |   48 | 26/05/15 | 17:43:46 | 3.363E+01 |
 +---------------------------+------+----------+----------+-----------+
 | RD000D3A213C7D            |   49 | 26/05/15 | 17:43:46 | 2.750E+01 |
 |                           |   50 | 26/05/15 | 17:43:46 | 2.750E+01 |
 |                           |   51 | 26/05/15 | 17:43:46 | 2.750E+01 |
 |                           |   52 | 26/05/15 | 17:43:46 | 2.750E+01 |
 |                           |   53 | 26/05/15 | 17:43:46 | 2.750E+01 |
 |                           |   54 | 26/05/15 | 17:43:46 | 2.750E+01 |
 |                           |   55 | 26/05/15 | 17:43:46 | 2.750E+01 |
 |                           |   56 | 26/05/15 | 17:43:46 | 2.750E+01 |
 +---------------------------+------+----------+----------+-----------+
 | RD000D3A213245            |   57 | 26/05/15 | 17:43:46 | 2.652E+01 |
 |                           |   58 | 26/05/15 | 17:43:46 | 2.652E+01 |
 |                           |   59 | 26/05/15 | 17:43:46 | 2.652E+01 |
 |                           |   60 | 26/05/15 | 17:43:46 | 2.652E+01 |
 |                           |   61 | 26/05/15 | 17:43:46 | 2.652E+01 |
 |                           |   62 | 26/05/15 | 17:43:46 | 2.652E+01 |
 |                           |   63 | 26/05/15 | 17:43:46 | 2.652E+01 |
 |                           |   64 | 26/05/15 | 17:43:46 | 2.652E+01 |
 +---------------------------+------+----------+----------+-----------+
 | RD000D3A213B14            |   65 | 26/05/15 | 17:43:46 | 2.654E+01 |
 |                           |   66 | 26/05/15 | 17:43:46 | 2.654E+01 |
 |                           |   67 | 26/05/15 | 17:43:46 | 2.654E+01 |
 |                           |   68 | 26/05/15 | 17:43:46 | 2.654E+01 |
 |                           |   69 | 26/05/15 | 17:43:46 | 2.654E+01 |
 |                           |   70 | 26/05/15 | 17:43:46 | 2.654E+01 |
 |                           |   71 | 26/05/15 | 17:43:46 | 2.654E+01 |
 |                           |   72 | 26/05/15 | 17:43:46 | 2.654E+01 |
 +---------------------------+------+----------+----------+-----------+
 | RD000D3A213B53            |   73 | 26/05/15 | 17:43:46 | 2.964E+01 |
 |                           |   74 | 26/05/15 | 17:43:46 | 2.964E+01 |
 |                           |   75 | 26/05/15 | 17:43:46 | 2.964E+01 |
 |                           |   76 | 26/05/15 | 17:43:46 | 2.964E+01 |
 |                           |   77 | 26/05/15 | 17:43:46 | 2.964E+01 |
 |                           |   78 | 26/05/15 | 17:43:46 | 2.964E+01 |
 |                           |   79 | 26/05/15 | 17:43:46 | 2.964E+01 |
 |                           |   80 | 26/05/15 | 17:43:46 | 2.964E+01 |
 +---------------------------+------+----------+----------+-----------+
 | RD000D3A213EF9            |   81 | 26/05/15 | 17:43:46 | 3.019E+01 |
 |                           |   82 | 26/05/15 | 17:43:46 | 3.019E+01 |
 |                           |   83 | 26/05/15 | 17:43:46 | 3.019E+01 |
 |                           |   84 | 26/05/15 | 17:43:46 | 3.019E+01 |
 |                           |   85 | 26/05/15 | 17:43:46 | 3.019E+01 |
 |                           |   86 | 26/05/15 | 17:43:46 | 3.019E+01 |
 |                           |   87 | 26/05/15 | 17:43:46 | 3.019E+01 |
 |                           |   88 | 26/05/15 | 17:43:46 | 3.019E+01 |
 +---------------------------+------+----------+----------+-----------+
 | RD000D3A213B10            |   89 | 26/05/15 | 17:43:46 | 3.088E+01 |
 |                           |   90 | 26/05/15 | 17:43:46 | 3.088E+01 |
 |                           |   91 | 26/05/15 | 17:43:46 | 3.088E+01 |
 |                           |   92 | 26/05/15 | 17:43:46 | 3.088E+01 |
 |                           |   93 | 26/05/15 | 17:43:46 | 3.088E+01 |
 |                           |   94 | 26/05/15 | 17:43:46 | 3.088E+01 |
 |                           |   95 | 26/05/15 | 17:43:46 | 3.088E+01 |
 |                           |   96 | 26/05/15 | 17:43:46 | 3.088E+01 |
 +---------------------------+------+----------+----------+-----------+
 | RD000D3A2134D3            |   97 | 26/05/15 | 17:43:45 | 2.955E+01 |
 |                           |   98 | 26/05/15 | 17:43:45 | 2.955E+01 |
 |                           |   99 | 26/05/15 | 17:43:45 | 2.955E+01 |
 |                           |  100 | 26/05/15 | 17:43:45 | 2.955E+01 |
 |                           |  101 | 26/05/15 | 17:43:45 | 2.955E+01 |
 |                           |  102 | 26/05/15 | 17:43:45 | 2.955E+01 |
 |                           |  103 | 26/05/15 | 17:43:45 | 2.955E+01 |
 |                           |  104 | 26/05/15 | 17:43:45 | 2.955E+01 |
 +---------------------------+------+----------+----------+-----------+
 | RD000D3A21303B            |  105 | 26/05/15 | 17:43:46 | 2.682E+01 |
 |                           |  106 | 26/05/15 | 17:43:46 | 2.682E+01 |
 |                           |  107 | 26/05/15 | 17:43:46 | 2.682E+01 |
 |                           |  108 | 26/05/15 | 17:43:46 | 2.682E+01 |
 |                           |  109 | 26/05/15 | 17:43:46 | 2.682E+01 |
 |                           |  110 | 26/05/15 | 17:43:46 | 2.682E+01 |
 |                           |  111 | 26/05/15 | 17:43:46 | 2.682E+01 |
 |                           |  112 | 26/05/15 | 17:43:46 | 2.682E+01 |
 +---------------------------+------+----------+----------+-----------+
 | RD000D3A2136B6            |  113 | 26/05/15 | 17:43:46 | 3.005E+01 |
 |                           |  114 | 26/05/15 | 17:43:46 | 3.005E+01 |
 |                           |  115 | 26/05/15 | 17:43:46 | 3.005E+01 |
 |                           |  116 | 26/05/15 | 17:43:46 | 3.005E+01 |
 |                           |  117 | 26/05/15 | 17:43:46 | 3.005E+01 |
 |                           |  118 | 26/05/15 | 17:43:46 | 3.005E+01 |
 |                           |  119 | 26/05/15 | 17:43:46 | 3.005E+01 |
 |                           |  120 | 26/05/15 | 17:43:46 | 3.005E+01 |
 +---------------------------+------+----------+----------+-----------+
 | RD000D3A213A6C            |  121 | 26/05/15 | 17:43:46 | 5.904E+01 |
 |                           |  122 | 26/05/15 | 17:43:46 | 5.904E+01 |
 |                           |  123 | 26/05/15 | 17:43:46 | 5.649E+01 |
 |                           |  124 | 26/05/15 | 17:43:46 | 5.649E+01 |
 |                           |  125 | 26/05/15 | 17:43:46 | 5.904E+01 |
 |                           |  126 | 26/05/15 | 17:43:46 | 5.904E+01 |
 |                           |  127 | 26/05/15 | 17:43:46 | 5.649E+01 |
 |                           |  128 | 26/05/15 | 17:43:46 | 5.904E+01 |
 +---------------------------+------+----------+----------+-----------+

 Total wall clock time: 2.534E+01 seconds
             or: (          0:         0:         0:    25.344 )
                 (       Days:     Hours:   Minutes:   Seconds )



 --> Final synchronization point reached by all partitions.
End of solution stage.

 +--------------------------------------------------------------------+
 | The results from this run of the ANSYS CFX Solver have been        |
 | written to                                                         |
 | \\10.10.13.6\C\Resources\directory\62cf9c42b5fa44c999b0d9cc664765- |
 | b4.HSR.AzureEE.HpcWorkerRole.jobdata\job-4\pipe01_001.res          |
 +--------------------------------------------------------------------+


This run of the ANSYS CFX Solver has finished.
